330
Pt6H1@H-MFI ＋ HB ＋ (H2O)10
Si    8.403434    1.067382    8.745122
Si    6.047845    0.654876   10.850402
Si    5.587739    1.171852    0.354248
Si    2.461104    1.271546    0.153102
Si    1.388125    0.543442   10.815070
Si    3.674838    1.261597    9.075682
Si    8.610261   16.466024    9.056009
Si    6.161370   17.321283   10.908350
Si    5.420956   16.500051    0.459706
Si    2.377412   16.474979    0.436420
Si    1.375511   17.357899   11.013942
Si    3.624382   16.318573    9.178731
Si    1.542094   18.840773    2.048670
Si    3.941130   19.368095    4.064819
Si    7.674432   18.481594    6.930789
Si    8.621874   19.349192    4.134143
Si    6.405638   18.701878    2.203110
Si    1.690457    3.389596    2.320880
Si    3.927916    2.678405    4.386412
Si    4.527374    3.343828    7.224277
Si    7.561708    3.321143    6.999711
Si    8.716578    2.587666    4.189147
Si   11.634583   11.029021    4.623827
Si   14.194197   10.515228    2.747128
Si   14.475305   11.073992   13.132337
Si   17.671217   11.228011   13.252516
Si   18.730381   10.547464    2.714742
Si   16.506536   11.352777    4.545804
Si   11.744104    6.491452    4.453863
Si   14.257265    7.344124    2.575960
Si   14.803465    6.642485   13.047355
Si   18.920589    7.409989    2.725849
Si   16.535368    6.521499    4.448509
Si   18.556589    8.952958   11.320145
Si   16.204405    9.490828    9.345081
Si   15.615358    8.917737    6.415944
Si   12.438267    8.660841    6.537462
Si   11.495431    9.483267    9.247386
Si   13.781343    8.754963   11.125288
Si   18.475300   13.464459   11.164635
Si   16.108500   12.669495    9.299981
Si   15.501833   13.418096    6.319319
Si   12.502136   13.455107    6.259229
Si   13.779541   13.433019   11.191669
Si   11.540280   18.836592    4.636406
Si   13.987770   19.362921    2.659871
Si   14.391613   18.840174   13.102626
Si   17.529861   18.619097   13.223207
Si   18.616655   19.348793    2.555484
Si   16.404825   18.625067    4.417461
Si   11.765727    3.423424    4.469655
Si   14.144742    2.681788    2.478264
Si   14.742198    3.438547   12.967324
Si   17.802361    3.451481   13.052842
Si   18.767820    2.495136    2.435572
Si   18.509537    1.062607   11.397365
Si   16.129723    0.509812    9.425915
Si   15.546081    0.992761    6.485670
Si   12.453884    1.229559    6.556600
Si   11.349270    0.524538    9.320189
Si   13.659408    1.291246   11.129035
Si   18.448872   16.516966   11.133853
Si   16.237442   17.236912    9.166552
Si   15.441967   16.586214    6.237816
Si   12.409435   16.501842    6.312761
Si   11.502439   17.258402    9.251133
Si   13.859828   16.442743   11.039905
Si    8.584833    9.265372    8.566860
Si    6.208822    9.300992   10.563871
Si    5.468609    8.793368    0.351304
Si    2.312541    8.672183    0.253073
Si    1.444387    9.551122   10.792319
Si    3.595751    8.856050    8.774162
Si    8.369396   13.323972    8.924990
Si    6.106710   12.442248   10.982090
Si    5.348076   13.343473    0.446323
Si    2.332162   13.433019    0.257355
Si    1.354288   12.623727   10.813732
Si    3.734303   13.244576    9.033391
Si    1.523074   11.115183    1.987911
Si    3.906292   10.511646    3.924164
Si    4.482125   11.107622    6.811278
Si    7.640795   11.332878    6.667812
Si    8.689147   10.586864    3.998974
Si    6.357786   11.084937    2.126425
Si    1.656820    6.482895    2.268151
Si    3.930919    7.394468    4.170411
Si    4.426664    6.541797    7.080142
Si    8.785254    7.415362    4.258203
Si    6.384816    6.628954    2.513328
O    7.168476    1.160709    9.786854
O    6.352580    1.326666   12.291616
O    4.011407    0.900430    0.007093
O    1.823403    1.500186   12.052998
O    2.097505    1.000323    9.439298
O    4.526774    1.079123   10.454398
O    7.488628   16.748989   10.192091
O    6.168778   16.745605   12.419157
O    3.891476   17.090853    0.414070
O    1.749923   16.495275   12.321059
O    2.153366   16.584623    9.788193
O    4.830908   16.757147   10.121831
O    6.096298   18.920567   10.877568
O    1.835217   18.901861   11.196218
O    8.581228    2.513244    8.007986
O    8.178987   19.910145    7.535700
O    8.515156   17.317305    7.691076
O    3.840820    2.822673    8.604065
O    4.168180    0.251523    7.946960
O    3.593148   17.260193    7.763077
O   19.810167    0.661841   10.520243
O   19.798553   17.322081   10.711351
O    2.761434   18.818285    3.086923
O    3.754125   18.664267    5.495327
O    6.123728   18.235046    7.190686
O    8.095896   18.410954    5.354538
O    7.920503   18.903454    2.744318
O    5.403738   18.986631    3.440769
O    2.673137    3.396759    3.593603
O    3.586541    2.911025    5.976982
O    6.031827    2.723178    7.026610
O    8.184994    3.395366    5.513261
O    8.014606    3.145236    2.852587
O    5.339266    3.315372    4.014766
O    3.833612    1.082307    4.093860
O    8.349774    1.005297    4.506458
O    1.415155   17.332825    1.422747
O    1.670035    0.011939    0.832423
O    2.259483    2.650746    0.997837
O    6.257275   17.162092    1.675418
O    6.170780   19.651258    0.921152
O    5.758327    2.402804    1.328263
O   10.196604   19.074982    3.760890
O   10.350973    2.727556    4.097340
O   12.933611   10.863859    3.681797
O   13.927904   11.107622    1.255593
O   16.086676   11.026235   12.977630
O   18.104092   11.357553    1.422211
O   18.019600   11.024244    4.087971
O   15.508040   11.345216    3.264248
O   12.949227    6.881671    3.424576
O   13.930507    6.969227    1.013628
O   16.289497    7.222740   13.215445
O   18.674118    6.548562    1.401602
O   18.082668    6.886646    4.025205
O   15.593934    6.554532    3.090804
O   14.595838    8.939626    2.762787
O   18.519548    8.967882    2.426472
O   11.590735   12.519455    5.276381
O   11.673426    9.872491    5.774096
O   12.186790    7.221347    5.860549
O   16.514145   12.846596    5.187920
O   16.093483   10.283405    5.690853
O   15.943919    7.618929    5.520220
O    0.262689   10.945246    2.998060
O    0.498147    7.287611    3.097897
O   17.269375    8.786404   10.369148
O   16.421043    8.871969    7.860372
O   14.016601    9.033748    6.692839
O   11.769932    8.458667    8.017488
O   12.250660    8.786801   10.544065
O   14.695346    9.195128    9.865814
O   17.205305   13.512218   10.141370
O   16.183783   13.105680    7.764950
O   14.012997   12.773368    6.188701
O   12.011398   13.514207    7.778467
O   12.167369   13.345662   10.622355
O   14.602645   13.011559    9.871970
O   16.443266   11.094687    9.453484
O   12.099295   10.946441    9.035131
O   18.853115    7.398448   11.968283
O   18.361975    9.869705   12.629270
O   18.109497   12.590296   12.485002
O   14.093286    7.287412   11.710661
O   13.846414    9.789711   12.375929
O   13.926302   12.451401   12.449135
O    9.881057    9.546147    9.542615
O    9.742105   12.609200    9.374792
O   12.847116   18.825249    3.674972
O   13.671021   18.737696    1.174626
O   15.976754   19.070208   13.294806
O   18.108696   18.395233    1.339237
O   17.931301   18.901463    3.945175
O   15.447573   18.814106    3.111815
O   12.930608    3.318954    3.343743
O   13.855824    3.062257    0.905628
O   16.269276    2.831429   13.051638
O   18.343355    3.475559    1.239266
O   18.102291    3.064446    3.927777
O   15.587326    3.235577    2.926728
O   14.087479    1.067780    2.668972
O   18.193390    1.001716    2.183035
O   11.430960   17.391129    5.366449
O   11.595941    0.091137    5.774497
O   12.419446    2.650149    5.781857
O   16.267075   17.086674    4.933910
O   16.097887   19.574448    5.689515
O   15.780739    2.337934    5.675864
O    0.176394   19.228603    2.844022
O    0.325157    2.570951    2.767471
O   17.187885    1.177225   10.456539
O   16.348164    1.071959    7.927152
O   13.965944    0.675770    6.775546
O   11.761523    1.414222    8.026588
O   12.093287    1.241897   10.618742
O   14.593635    0.834365    9.880000
O   17.525658   16.485327    9.797561
O   16.268074   17.004492    7.574243
O   13.917292   17.168062    6.281445
O   11.850221   16.507215    7.853814
O   12.358779   16.582235   10.466443
O   14.868937   16.586613    9.780699
O   16.348164   18.805151    9.541142
O   11.831800   18.866440    9.133496
O   18.760612    2.486579   12.140388
O   18.361376   19.819405   12.544422
O   17.681229   17.241091   12.376465
O   14.011795    2.798197   11.635849
O   13.759118    0.251125   12.379275
O   14.107301   17.502764   12.227913
O    9.752916    0.666815    9.610332
O   10.007195   16.915941    9.778021
O    7.169477    9.703350    9.199474
O    5.669429    8.535676   12.148418
O    3.862244    8.954550    0.656168
O    1.928118    8.618456   12.039883
O    2.100908    9.117921    9.375729
O    4.695760    9.203884    9.876119
O    7.264782   13.176919   10.116343
O    6.183995   13.104884   12.466934
O    3.825804   12.768790    0.246916
O    1.750323   13.526544   12.111214
O    2.168583   13.016533    9.453752
O    4.666127   12.848387   10.295140
O    6.258276   10.856695   11.209601
O    1.746319   11.091305   11.209065
O    8.678135    7.706684    8.116656
O    8.679937   10.188487    7.202864
O    7.755521   12.693572    7.533425
O    3.668831    7.294178    8.291037
O    3.761733    9.783144    7.436130
O    4.171383   12.434089    7.696430
O   19.858820    9.362479   10.464704
O   19.781536   12.775356   10.456539
O    2.909797   11.193387    2.839070
O    3.843022   11.352977    5.327371
O    6.085086   10.777298    6.690162
O    8.082080   11.605892    5.119132
O    7.921905   10.945047    2.587469
O    5.430567   10.531547    3.345349
O    3.005302    6.540205    3.169095
O    3.674237    6.873313    5.693128
O    6.001595    7.281641    6.948989
O    8.429061    6.641092    5.597172
O    7.926109    6.798892    3.016127
O    5.491234    7.210801    3.774274
O    3.496642    8.962111    4.179244
O    8.425258    9.026982    4.359512
O    1.339071   12.514680    1.165793
O    1.426968    9.870103    0.923962
O    1.908897    7.210004    0.827739
O    6.010203   12.620344    1.752236
O    6.180791   10.209183    0.762296
O    6.158567    7.634848    1.240470
O   10.267682   10.861471    3.755404
O   10.384210    7.221546    3.914527
O    8.595845   14.909326    8.620793
O    3.840420   14.826347    8.615574
O    5.338666   14.919474    0.763500
O    2.404842   14.919474    0.917003
O    1.316847    4.926395    1.932104
O    6.095497    5.149065    2.006112
O    4.588642    4.983108    7.353423
O    7.419352    4.884807    7.444293
O   11.597743    4.964801    5.013138
O   16.514746    5.057132    5.102135
O   14.768228    5.041810   12.788795
O   17.924496    4.942514   12.479915
O   18.776831   14.996881   11.622869
O   14.017402   14.943751   11.707181
O   15.354671   14.996086    6.110678
O   12.437265   14.996483    5.690853
O   11.179084    4.975944   15.724490
O    9.260575   10.616117   12.214263
O   11.011498    0.920329   14.463276
O    9.175882    2.816106   13.215311
O   10.835305    8.543039   12.633820
O    9.105004    8.798940   14.640734
O   11.092989    3.975024   10.792586
O   11.094390    5.221498    8.209535
O   11.757718    8.959126   15.138181
O    9.432364    6.303804   14.308300
Al    4.511557   18.760977    7.031027
Al    6.302725    3.497448    2.562176
Al   17.836597    6.464588   13.294806
Al   11.426555   12.532391    9.036871
Al   16.301512    3.461630    4.484510
Al    7.758325    6.561894    7.161645
H    5.972963    8.230624    6.699263
H   19.292397    6.760685   11.371000
H   11.494229   13.761950   11.196218
H    8.337562   10.544878   -0.862267
H   18.799856    3.428797    4.506993
H    2.962054   16.936836    7.088038
H   11.758719    8.721533   14.182902
H   10.471706    5.450933   15.216471
H    9.944326    2.247791   13.465840
H    9.198507   10.621688   11.239445
H   10.533774    0.266249   15.005019
H   11.643994    0.398378   13.941206
H    8.749814    3.034598   14.069549
H   11.864636    4.750886   15.075280
H   10.112111    9.258806   12.607188
H   11.358880    8.693873   11.801665
H    8.444879    9.420187   14.990165
H    9.994382    9.127274   14.942121
H   11.162065    4.351314    9.875584
H   11.309827    3.020071   10.727813
H   11.469603    6.114366    8.091629
H   11.158661    4.807002    7.328531
H    6.324549    3.662411   12.309417
H   11.634784    8.110634   15.599627
H    8.616267    5.784241   14.182099
H    9.139041    7.240849   14.584660
Pt    6.842719    4.936743   -3.900877
Pt    9.961546    6.675717   -1.224009
Pt    8.999488    6.272563   -3.548369
Pt    6.642298    5.147274   -1.390895
Pt    7.522466    7.628282   -1.948966
Pt    9.050344    4.389520   -1.850066
