330
Pt6H1@H-MFI ï¼‹ H+(H2O)10
Si    8.413044    1.064198    8.727858
Si    6.098100    0.661841   10.858967
Si    5.603157    1.173444    0.345951
Si    2.468713    1.272342    0.149890
Si    1.407747    0.540457   10.811992
Si    3.716483    1.258811    9.082239
Si    8.568815   16.452892    9.002878
Si    6.102505   17.338993   10.868335
Si    5.425762   16.505424    0.438427
Si    2.375610   16.477566    0.421163
Si    1.357091   17.354713   10.990923
Si    3.566719   16.348223    9.138181
Si    1.548702   18.840572    2.035420
Si    3.955146   19.373865    4.030425
Si    7.668226   18.466074    6.916737
Si    8.627079   19.348196    4.127050
Si    6.414848   18.699289    2.194545
Si    1.687855    3.386611    2.318739
Si    3.926714    2.679600    4.379453
Si    4.521968    3.342634    7.219058
Si    7.557303    3.316964    6.978298
Si    8.720582    2.583686    4.181653
Si   11.642993   11.035986    4.626637
Si   14.200403   10.526969    2.740169
Si   14.456884   11.124735   13.113467
Si   17.654198   11.227812   13.259609
Si   18.724773   10.549058    2.716481
Si   16.506136   11.358350    4.550488
Si   11.758921    6.484686    4.460822
Si   14.265274    7.345915    2.577164
Si   14.800463    6.646664   13.042403
Si   18.918386    7.410786    2.725180
Si   16.536970    6.522494    4.452123
Si   18.550182    8.960320   11.318672
Si   16.193792    9.504559    9.350569
Si   15.619562    8.920324    6.420361
Si   12.442672    8.665418    6.538265
Si   11.519258    9.488441    9.247787
Si   13.762121    8.768892   11.136663
Si   18.470295   13.458689   11.188322
Si   16.086475   12.686807    9.326479
Si   15.498429   13.416701    6.336449
Si   12.484118   13.452123    6.283988
Si   13.624570   13.428244   11.165972
Si   11.544886   18.830822    4.638280
Si   13.989771   19.358543    2.656660
Si   14.384206   18.825647   13.094730
Si   17.522053   18.619694   13.221601
Si   18.621260   19.345409    2.555216
Si   16.405827   18.621683    4.418263
Si   11.770933    3.416260    4.472198
Si   14.146544    2.677809    2.476926
Si   14.741998    3.438547   12.965718
Si   17.803562    3.451481   13.049094
Si   18.765818    2.494340    2.434100
Si   18.518547    1.058428   11.393350
Si   16.131725    0.503047    9.427655
Si   15.550486    0.990970    6.487410
Si   12.456487    1.223788    6.559276
Si   11.345866    0.515782    9.319787
Si   13.661010    1.285077   11.130239
Si   18.435656   16.510599   11.134789
Si   16.221624   17.228355    9.175385
Si   15.442768   16.583229    6.243705
Si   12.411238   16.496868    6.315839
Si   11.476409   17.233530    9.254210
Si   13.841408   16.407721   11.047265
Si    8.587235    9.255025    8.553477
Si    6.247064    9.285869   10.576451
Si    5.472012    8.795956    0.351705
Si    2.311740    8.671388    0.259229
Si    1.441984    9.556097   10.812928
Si    3.629188    8.855851    8.789152
Si    8.309530   13.326758    8.909330
Si    6.077678   12.443840   10.989050
Si    5.342870   13.348051    0.453416
Si    2.327958   13.436004    0.257221
Si    1.344477   12.626513   10.817613
Si    3.720688   13.253927    9.027637
Si    1.517267   11.116577    1.989651
Si    3.902488   10.512045    3.922825
Si    4.476318   11.106427    6.812750
Si    7.637392   11.318353    6.652020
Si    8.695154   10.585273    3.989740
Si    6.354382   11.083345    2.127629
Si    1.652416    6.480507    2.268553
Si    3.928116    7.393275    4.167734
Si    4.423060    6.540403    7.079875
Si    8.792661    7.415761    4.258203
Si    6.384816    6.630745    2.512926
O    7.182892    1.173245    9.774007
O    6.418852    1.328059   12.301119
O    4.022820    0.903216    0.002141
O    1.829610    1.500186   12.052328
O    2.149762    0.995746    9.451879
O    4.585238    1.081909   10.452124
O    7.342668   16.732075   10.029087
O    6.161971   16.742422   12.378472
O    3.893878   17.090057    0.407914
O    1.754328   16.496071   12.300316
O    2.075881   16.586414    9.713917
O    4.684547   16.916140   10.129325
O    6.178389   18.935291   10.884662
O    1.836818   18.893902   11.189393
O    8.588838    2.492549    7.950037
O    8.178786   19.891239    7.535298
O    8.504344   17.246264    7.603819
O    3.846426    2.822673    8.603395
O    4.172585    0.247146    7.941071
O    3.586541   17.249449    7.693887
O   19.832392    0.666219   10.522117
O   19.781336   17.326059   10.712155
O    2.826906   18.818684    3.004885
O    3.754125   18.659889    5.449290
O    6.113317   18.236837    7.187072
O    8.094093   18.413540    5.344769
O    7.926909   18.904051    2.734816
O    5.421757   18.988024    3.435951
O    2.672136    3.397356    3.591863
O    3.585740    2.912219    5.969354
O    6.027823    2.724969    7.024737
O    8.183792    3.400341    5.498405
O    8.015007    3.145435    2.848572
O    5.340268    3.315770    4.013963
O    3.833212    1.084098    4.091719
O    8.349774    1.005098    4.503915
O    1.415555   17.330437    1.416858
O    1.669234    0.018108    0.826400
O    2.262085    2.649950    0.997034
O    6.257275   17.160101    1.665648
O    6.171381   19.651058    0.918341
O    5.759728    2.403998    1.325051
O   10.201209   19.075581    3.760623
O   10.352375    2.728153    4.096537
O   12.935412   10.862068    3.680861
O   13.925901   11.105234    1.253318
O   16.078066   11.022852   12.983518
O   18.103891   11.355364    1.426093
O   18.019400   11.024444    4.091049
O   15.512044   11.347206    3.265184
O   12.952831    6.881473    3.425245
O   13.927103    6.972809    1.015234
O   16.286695    7.221944   13.216516
O   18.674519    6.548562    1.400933
O   18.083870    6.886248    4.025741
O   15.596336    6.553736    3.091741
O   14.589831    8.942014    2.761448
O   18.520149    8.967683    2.427275
O   11.588734   12.520252    5.276248
O   11.672225    9.870700    5.772490
O   12.186991    7.222143    5.864029
O   16.508940   12.847988    5.193273
O   16.093483   10.282610    5.690318
O   15.943317    7.619725    5.521023
O    0.261087   10.944650    2.999933
O    0.497947    7.287213    3.098165
O   17.266972    8.787200   10.367007
O   16.416437    8.872766    7.865591
O   14.017402    9.033548    6.692437
O   11.771334    8.457075    8.020164
O   12.203609    8.798343   10.585686
O   14.682934    9.191945    9.869293
O   17.247150   13.503063   10.127585
O   16.184383   13.103691    7.774319
O   14.002185   12.777745    6.198872
O   11.919296   13.506645    7.779270
O   12.101097   13.271638   10.698103
O   14.601644   13.016932    9.889100
O   16.442066   11.100259    9.453885
O   12.088882   10.951614    9.029243
O   18.852915    7.404418   11.968417
O   18.361774    9.874282   12.629270
O   18.116106   12.604424   12.532376
O   14.089280    7.292785   11.709322
O   13.845013    9.802845   12.379410
O   13.939316   12.501945   12.463990
O    9.885262    9.533213    9.537529
O    9.682239   12.528809    9.452011
O   12.848317   18.825848    3.674704
O   13.669620   18.737892    1.173823
O   15.968946   19.070208   13.295609
O   18.109299   18.397024    1.338166
O   17.933506   18.901463    3.944505
O   15.449374   18.814306    3.112484
O   12.931007    3.319153    3.343341
O   13.855824    3.062854    0.905628
O   16.269476    2.833021   13.051370
O   18.343555    3.475161    1.237660
O   18.102489    3.064446    3.927241
O   15.587127    3.235776    2.926996
O   14.086477    1.066188    2.669106
O   18.195793    1.000124    2.183972
O   11.431360   17.387150    5.366985
O   11.595941    0.090540    5.773962
O   12.419045    2.648159    5.785604
O   16.266872   17.086079    4.936052
O   16.099089   19.574646    5.688712
O   15.780939    2.337735    5.676667
O    0.187806   19.225618    2.843888
O    0.324757    2.570553    2.767471
O   17.192692    1.175235   10.455737
O   16.348965    1.072357    7.929427
O   13.969549    0.675770    6.775947
O   11.761724    1.411834    8.028194
O   12.092687    1.240106   10.616601
O   14.594836    0.834763    9.879465
O   17.521252   16.484531    9.796758
O   16.266474   17.004492    7.579997
O   13.916891   17.167664    6.280910
O   11.847818   16.504032    7.852475
O   12.344364   16.589397   10.462161
O   14.856524   16.587606    9.783240
O   16.348362   18.801968    9.541678
O   11.764326   18.848133    9.127340
O   18.762014    2.485783   12.138113
O   18.361574   19.819006   12.543218
O   17.679426   17.241688   12.378606
O   14.010594    2.795810   11.635983
O   13.758518    0.250329   12.380747
O   14.103296   17.499182   12.219349
O    9.749312    0.673581    9.608058
O    9.946328   16.919722    9.718200
O    7.181291    9.703151    9.198538
O    5.680041    8.537068   12.145876
O    3.866849    8.953555    0.654027
O    1.928519    8.617063   12.049251
O    2.166180    9.117722    9.439432
O    4.754624    9.203288    9.869025
O    7.253971   13.173934   10.123035
O    6.181392   13.103492   12.467603
O    3.825203   12.769587    0.246515
O    1.752926   13.529530   12.110544
O    2.165980   13.016932    9.454823
O    4.658719   12.845799   10.291795
O    6.335561   10.863461   11.212411
O    1.747921   11.097474   11.212411
O    8.678135    7.699719    8.112908
O    8.681338   10.188289    7.200456
O    7.756322   12.684420    7.525529
O    3.672836    7.295372    8.293713
O    3.762334    9.782547    7.442153
O    4.172184   12.436477    7.698035
O   19.863226    9.361684   10.464972
O   19.779932   12.774363   10.463633
O    2.908796   11.193784    2.838668
O    3.842822   11.352380    5.328843
O    6.083284   10.777896    6.690296
O    8.082480   11.604102    5.113377
O    7.920302   10.949823    2.585462
O    5.429365   10.531744    3.347222
O    3.004902    6.539011    3.168024
O    3.674638    6.874110    5.692727
O    6.001995    7.278855    6.948186
O    8.430062    6.641490    5.594897
O    7.931115    6.804264    3.012781
O    5.491834    7.211199    3.774943
O    3.497443    8.961913    4.179779
O    8.427259    9.025988    4.357371
O    1.339472   12.515277    1.166061
O    1.428770    9.870899    0.925836
O    1.910699    7.209010    0.830148
O    6.010004   12.620543    1.752504
O    6.179590   10.211370    0.762430
O    6.160569    7.633654    1.237660
O   10.270485   10.860277    3.755404
O   10.396824    7.223735    3.914260
O    8.610460   14.869528    8.618385
O    3.844424   14.839480    8.623604
O    5.340868   14.923654    0.758548
O    2.405443   14.922857    0.913925
O    1.317448    4.924206    1.931167
O    6.097300    5.150259    2.006246
O    4.588441    4.982710    7.354361
O    7.419152    4.880031    7.444026
O   11.597743    4.961020    5.013539
O   16.514545    5.056734    5.102269
O   14.766624    5.043601   12.789464
O   17.925896    4.944901   12.479113
O   18.779634   14.996881   11.626884
O   14.015600   14.931811   11.698883
O   15.354470   14.994692    6.110678
O   12.437065   14.990713    5.696742
O   11.180084    4.975347   15.724625
O    9.189898   11.188610   11.473782
O   11.010697    0.921523   14.462339
O    9.177283    2.816106   13.214375
O   10.917397    8.458467   12.717063
O    9.179286    9.033947   14.464213
O   11.094390    3.967860   10.791516
O   11.093389    5.221298    8.211140
O   11.613360    8.958331   15.236814
O    9.428159    6.315943   14.310709
Al    4.503949   18.769932    6.994759
Al    6.303526    3.495458    2.561506
Al   17.835798    6.468170   13.292933
Al   11.550892   12.605221    9.191980
Al   16.301311    3.460038    4.485312
Al    7.755722    6.555527    7.156158
H    5.976967    8.201373    6.615752
H   19.264769    6.761282   11.357617
H    9.722883   11.752748   11.534675
H    8.242456   11.145032   -1.651998
H   18.799255    3.432180    4.504852
H    2.976871   16.921314    7.001718
H   11.847217    8.575872   14.365045
H   10.480515    5.461679   15.225170
H    9.939121    2.237842   13.466511
H    9.355079   10.327184   11.014745
H   10.545787    0.256100   15.001674
H   11.664216    0.414894   13.950439
H    8.747011    3.033404   14.067006
H   11.871043    4.759841   15.077823
H   10.139542    8.971863   13.097006
H   11.279994    8.846498   11.877948
H    8.557403    9.744740   14.706713
H   10.048040    9.226569   14.941718
H   11.172676    4.344151    9.875049
H   11.324643    3.013703   10.732229
H   11.494029    6.100636    8.076373
H   11.148450    4.786306    7.339237
H    6.340767    3.655645   12.298308
H   11.503639    8.192617   15.830885
H    8.627079    5.779665   14.152389
H    9.096795    7.220750   14.565521
Pt    6.853530    4.931967   -3.901546
Pt   10.027819    6.639898   -1.259340
Pt    9.011301    6.258832   -3.562287
Pt    6.658316    5.141504   -1.391832
Pt    7.568516    7.625894   -1.937725
Pt    9.060555    4.371015   -1.861441
