300
Pt6H2@H-MFI
Si    8.443878    1.075939    8.766802
Si    6.062661    0.637763   10.822966
Si    5.606761    1.176031    0.343140
Si    2.445888    1.276123    0.177994
Si    1.416757    0.541054   10.820557
Si    3.665828    1.321095    9.043696
Si    8.605656   16.472391    9.053733
Si    6.157566   17.308748   10.917986
Si    5.423960   16.502041    0.482189
Si    2.381617   16.475973    0.441371
Si    1.399137   17.354713   11.015949
Si    3.630789   16.381056    9.129348
Si    1.538290   18.837986    2.052149
Si    3.941531   19.374462    4.056119
Si    7.700661   18.525372    6.931457
Si    8.636290   19.367300    4.146589
Si    6.418252   18.716999    2.209667
Si    1.626387    3.408102    2.322486
Si    3.918305    2.693529    4.343185
Si    4.530578    3.373677    7.251578
Si    7.568116    3.373080    7.184530
Si    8.645499    2.591646    4.355096
Si   11.600546   10.933904    4.618072
Si   14.145342   10.467471    2.709924
Si   14.448276   11.089712   13.130196
Si   17.661806   11.237164   13.244219
Si   18.730181   10.534531    2.679678
Si   16.465893   11.333475    4.515558
Si   11.734694    6.552542    4.477015
Si   14.192994    7.302734    2.551871
Si   14.853320    6.632934   13.073050
Si   18.915182    7.402030    2.708853
Si   16.499529    6.529061    4.439275
Si   18.545376    8.949376   11.321884
Si   16.179577    9.484859    9.352978
Si   15.618361    8.918732    6.419959
Si   12.452682    8.653080    6.604912
Si   11.460192    9.397502    9.388576
Si   13.782543    8.725513   11.169854
Si   18.483709   13.466052   11.134389
Si   16.145540   12.667704    9.246984
Si   15.474202   13.420483    6.279170
Si   12.450480   13.377899    6.230456
Si   13.791153   13.449138   11.148173
Si   11.536275   18.796198    4.640020
Si   13.952129   19.300837    2.645551
Si   14.388410   18.872610   13.090047
Si   17.529261   18.617306   13.227356
Si   18.614452   19.344416    2.558161
Si   16.397617   18.626459    4.410368
Si   11.724883    3.378651    4.547544
Si   13.936713    2.628658    2.460866
Si   14.641287    3.443522   12.964782
Si   17.694641    3.418250   12.995161
Si   18.681126    2.512249    2.408271
Si   18.524153    1.035345   11.382509
Si   16.069656    0.550804    9.424442
Si   15.552089    0.988781    6.482993
Si   12.459691    1.198716    6.572258
Si   11.354275    0.462254    9.330359
Si   13.603747    1.363081   11.159281
Si   18.453676   16.554178   11.114984
Si   16.162157   17.271338    9.154106
Si   15.422145   16.594374    6.231928
Si   12.394018   16.444534    6.308479
Si   11.505442   17.212236    9.241632
Si   13.864033   16.438763   11.035489
Si    8.532375    9.031758    8.797716
Si    5.948536    9.474710   10.674950
Si    5.471012    8.873760    0.281444
Si    2.271896    8.675566    0.172641
Si    1.423164    9.571817   10.752839
Si    3.536686    8.756556    8.706043
Si    8.355982   13.329544    8.932618
Si    5.991183   12.644820   10.986373
Si    5.378310   13.359990    0.487810
Si    2.361795   13.434810    0.258560
Si    1.368103   12.644621   10.810922
Si    3.709075   13.380883    9.009972
Si    1.542295   11.092300    1.997814
Si    3.957949   10.471451    3.957219
Si    4.456296   11.106826    6.856781
Si    7.612164   11.236766    6.797494
Si    8.651505   10.475630    4.040997
Si    6.398831   11.108418    2.153191
Si    1.667432    6.513341    2.234693
Si    4.039639    7.289203    4.123302
Si    4.498142    6.559706    7.051369
Si    8.724386    7.370390    4.215645
Si    6.473713    6.616616    2.357951
O    7.181491    1.161704    9.783508
O    6.347174    1.332238   12.263646
O    4.007003    0.908389    0.149890
O    1.841023    1.499390   12.061429
O    2.112321    0.997139    9.440101
O    4.571623    1.085689   10.382398
O    7.483623   16.745804   10.193563
O    6.167977   16.742222   12.436421
O    3.896281   17.090456    0.416077
O    1.753727   16.493484   12.328018
O    2.166180   16.582832    9.784312
O    4.829707   16.752571   10.118887
O    6.094497   18.910816   10.879442
O    1.847230   18.899473   11.199296
O    8.656111    2.562394    8.115049
O    8.182390   19.973225    7.522317
O    8.510951   17.330238    7.692816
O    3.756928    2.894907    8.610622
O    4.170382    0.395393    7.853011
O    3.588343   17.413017    7.779940
O   19.848209    0.663433   10.532421
O   19.830790   17.322081   10.710281
O    2.760233   18.818285    3.086120
O    3.759731   18.672625    5.488369
O    6.146153   18.316433    7.197110
O    8.099299   18.409163    5.354940
O    7.918100   18.978472    2.748199
O    5.403137   18.987427    3.437825
O    2.589045    3.323332    3.601499
O    3.678442    2.908239    5.949279
O    6.059057    2.737705    7.270717
O    8.092692    3.407505    5.668638
O    8.002593    3.151604    3.010506
O    5.258378    3.397157    3.846943
O    3.841421    1.086883    4.088908
O    8.339964    0.996343    4.599470
O    1.415355   17.331034    1.423817
O    1.664429    0.004776    0.832958
O    2.176391    2.654526    0.998104
O    6.265084   17.173832    1.683983
O    6.173182   19.658819    0.919145
O    5.852631    2.495733    1.176499
O   10.199006   19.070604    3.771195
O   10.267882    2.736511    4.342382
O   12.840109   10.696509    3.609529
O   13.847415   11.109413    1.242612
O   16.065052   11.029817   13.053110
O   18.107496   11.365711    1.408293
O   17.965340   11.017678    4.018112
O   15.435359   11.276565    3.262909
O   12.850320    6.878886    3.340798
O   13.920896    6.964451    0.988201
O   16.334949    7.218562   13.292531
O   18.683529    6.474139    1.419803
O   18.025206    6.963058    4.010082
O   15.525058    6.545577    3.103652
O   14.516950    8.894853    2.679143
O   18.526155    8.959126    2.346709
O   11.593940   12.451202    5.188991
O   11.670223    9.870700    5.859746
O   12.257068    7.230700    5.868044
O   16.436459   12.846795    5.105748
O   16.096285   10.284202    5.692325
O   15.936710    7.623307    5.523031
O    0.259886   10.941863    2.990030
O    0.500350    7.289601    3.094016
O   17.257961    8.784812   10.370354
O   16.412834    8.871571    7.867733
O   14.024610    9.040514    6.698727
O   11.842812    8.467621    8.111437
O   12.171374    8.620445   10.715902
O   14.657305    9.190353    9.876521
O   17.271976   13.510427   10.048091
O   16.188988   13.093741    7.703791
O   13.989371   12.765607    6.193385
O   11.849219   13.337504    7.709010
O   12.180784   13.437396   10.544466
O   14.670320   13.017926    9.868758
O   16.441465   11.087126    9.450005
O   12.025213   10.887539    9.356858
O   18.852915    7.391284   11.967748
O   18.355968    9.874084   12.626727
O   18.100889   12.597659   12.463856
O   14.181783    7.274080   11.712133
O   13.845413    9.789512   12.379542
O   13.923499   12.436676   12.379810
O    9.857030    9.369444    9.691166
O    9.685843   12.603231    9.450941
O   12.845314   18.736500    3.680058
O   13.678629   18.660885    1.160841
O   15.982760   19.065233   13.299223
O   18.111900   18.390856    1.341378
O   17.928499   18.899076    3.946647
O   15.440765   18.821470    3.105793
O   12.585629    3.160956    3.187161
O   13.775736    2.988233    0.878059
O   16.166162    2.817499   12.962774
O   18.185781    3.407505    1.182790
O   17.947319    3.133893    3.840519
O   15.274783    3.315173    3.016127
O   13.935712    1.009675    2.666964
O   18.186983    0.992363    2.185042
O   11.421550   17.334816    5.362568
O   11.602348    0.077606    5.764058
O   12.435063    2.655323    5.843955
O   16.260466   17.088066    4.932706
O   16.099089   19.572060    5.686169
O   15.777135    2.335745    5.678139
O    0.175393   19.229200    2.845895
O    0.224647    2.656317    2.765463
O   17.266771    1.078725   10.372763
O   16.351166    1.064597    7.917651
O   13.978559    0.667213    6.777553
O   11.758120    1.339800    8.031005
O   12.094689    1.087878   10.631455
O   14.662311    1.159316    9.946112
O   17.522654   16.658447    9.789397
O   16.260666   17.012054    7.563670
O   13.883855   17.155127    6.282784
O   11.847818   16.423243    7.858097
O   12.349169   16.497862   10.458681
O   14.867736   16.488510    9.768787
O   15.945320   18.826445    9.537930
O   11.841812   18.803759    9.117704
O   18.689335    2.473247   12.120448
O   18.366381   19.814032   12.546027
O   17.686434   17.238703   12.379007
O   13.765526    2.891723   11.698883
O   13.847816    0.325946   12.388778
O   14.103296   17.576986   12.140388
O    9.754718    0.581250    9.614615
O   10.004793   16.908777    9.777486
O    7.269388    9.283083    9.784312
O    6.092094    8.625023   12.117771
O    3.855236    9.028973    0.322932
O    1.912501    8.612487   11.965205
O    2.089696    9.121304    9.361409
O    4.659720    8.946989    9.876253
O    7.238554   13.173536   10.118752
O    6.252069   13.110257   12.520064
O    3.859241   12.774163    0.247184
O    1.754528   13.524356   12.123259
O    2.162776   13.097919    9.456027
O    4.598453   13.265271   10.373565
O    5.759128   11.032006   11.037897
O    1.749722   11.101851   11.197155
O    8.589237    7.463518    8.284880
O    8.497537   10.042429    7.519373
O    7.766133   12.675861    7.543194
O    3.504651    7.221944    8.194143
O    3.745115    9.778966    7.456874
O    4.170983   12.429314    7.781411
O   19.841402    9.366858   10.459216
O   19.798153   12.772770   10.456539
O    2.925815   11.102845    2.853122
O    3.844624   11.342231    5.352129
O    6.048646   10.782870    6.853434
O    8.101501   11.437547    5.258582
O    7.936520   10.865451    2.612629
O    5.492635   10.613530    3.415074
O    3.084790    6.560502    3.019606
O    3.749920    6.713127    5.603328
O    5.933519    7.289402    7.108113
O    8.265282    6.545179    5.510584
O    8.016007    6.965844    2.780051
O    5.577328    6.972610    3.689292
O    3.668631    8.887888    4.174425
O    8.348974    8.951963    4.507796
O    1.407547   12.497169    1.177704
O    1.431573    9.861347    0.916735
O    1.843225    7.222939    0.757478
O    6.094897   12.663127    1.771106
O    6.099102   10.283604    0.766712
O    5.931717    7.627685    1.168604
O   10.243256   10.697504    3.764370
O   10.343966    7.208413    3.939018
O    8.591841   14.911117    8.619857
O    3.827005   14.920868    8.451900
O    5.338866   14.927832    0.834832
O    2.410048   14.919474    0.918877
O    1.319650    4.957239    1.925948
O    6.339365    5.136131    1.765619
O    4.593447    4.980321    7.365201
O    7.442378    4.916844    7.755047
O   11.668820    4.977337    4.847858
O   16.510542    5.065291    5.097451
O   14.769629    5.043202   12.799100
O   17.852816    4.915650   12.462786
O   18.772026   15.009816   11.544712
O   14.019004   14.943751   11.714675
O   15.350667   15.000663    6.107600
O   12.431259   14.930020    5.696340
Al    4.544393   18.865446    7.006670
Al    6.370600    3.518342    2.496331
Al   17.860224    6.422203   13.301765
Al   11.364286   12.470305    9.101779
Al   16.170166    3.488295    4.475945
Al    7.529073    6.582987    7.069303
H   10.155158    5.420687    9.088262
H   19.305613    6.771232   11.361096
H   11.728086   14.292258   10.725404
H   18.613050    3.560926    4.415721
H    2.954246   17.122293    7.091117
H    6.810283    6.244505   12.685746
Pt    7.126230    4.806802   -3.510227
Pt   10.706764    7.328006   -1.602481
Pt    9.185493    6.212269   -3.372382
Pt    7.123627    4.658157   -0.965985
Pt    8.109110    7.314674   -1.147592
Pt    9.680237    5.051362   -1.203266
