289
Pt1@Silicalite-1
Si    8.447481    1.116931    8.746593
Si    6.059258    0.607118   10.774385
Si    5.621977    1.176628    0.312359
Si    2.409247    1.293435    0.185087
Si    1.350684    0.478372   10.821494
Si    3.608164    1.204088    8.983338
Si    8.509550   16.487516    8.987221
Si    6.149157   17.285069   10.926283
Si    5.444983   16.501047    0.488747
Si    2.409447   16.439161    0.420494
Si    1.431573   17.228952   10.948365
Si    3.735705   16.380657    9.061229
Si    1.578334   18.783463    2.061250
Si    3.974567   19.285513    4.079272
Si    4.394228   18.694912    7.038120
Si    7.606358   18.596611    6.890104
Si    8.649103   19.429583    4.135079
Si    6.427662   18.680584    2.255839
Si    1.559514    3.419842    2.285950
Si    3.884869    2.602192    4.284166
Si    4.573825    3.397356    7.205943
Si    7.623977    3.464018    7.065823
Si    8.565812    2.648756    4.202262
Si    6.259077    3.461232    2.372940
Si   11.577321   11.035587    4.661299
Si   13.962742   10.561195    2.631901
Si   14.406830   11.134485   13.102626
Si   17.631372   11.239552   13.217988
Si   18.671915   10.444587    2.616377
Si   16.393814   11.162344    4.426293
Si   11.492828    6.554929    4.385342
Si   13.869039    7.339945    2.456851
Si   14.557996    6.555129   12.904960
Si   17.615755    6.497621   12.967726
Si   18.630070    7.299749    2.435438
Si   16.305117    6.490656    4.318025
Si   18.452074    8.839733   11.302078
Si   16.017799    9.347954    9.325944
Si   15.603946    8.766504    6.379275
Si   12.398222    8.630992    6.542681
Si   11.367890    9.470332    9.268263
Si   13.559299    8.757948   11.161958
Si   18.492119   13.375113   11.109095
Si   16.162760   12.563233    9.152768
Si   15.460187   13.342877    6.231794
Si   12.412438   13.402375    6.275423
Si   11.435765   12.587709    9.123057
Si   13.732489   13.418293   11.025584
Si   11.584128   18.804556    4.649790
Si   13.979360   19.293871    2.621864
Si   14.407631   18.739286   13.062879
Si   17.616756   18.603973   13.188680
Si   18.669514   19.415852    2.559901
Si   16.423044   18.684565    4.418263
Si   11.503839    3.420439    4.393104
Si   13.900272    2.614729    2.456450
Si   14.555393    3.401137   12.907904
Si   17.610350    3.458446   12.969465
Si   18.617256    2.655720    2.431156
Si   16.314726    3.463819    4.307051
Si   18.445868    1.115936   11.323758
Si   16.045429    0.610899    9.315372
Si   15.618361    1.181006    6.359066
Si   12.405030    1.314528    6.500659
Si   11.386311    0.480561    9.250731
Si   13.596740    1.222396   11.142954
Si   18.477303   16.470600   11.098255
Si   16.135729   17.293625    9.150760
Si   15.447973   16.504827    6.217206
Si   12.410636   16.441748    6.270203
Si   11.461394   17.259796    9.119177
Si   13.730287   16.428616   11.031875
Si    8.476913    9.008874    8.469967
Si    6.279700    9.305767   10.667189
Si    5.394727    8.802920    0.446992
Si    2.278303    8.736258    0.204760
Si    1.351485    9.466750   10.789777
Si    3.699865    8.747998    8.988692
Si    8.461497   13.346657    8.981064
Si    6.162371   12.475280   10.988915
Si    5.452190   13.361582    0.478308
Si    2.411650   13.400783    0.410992
Si    1.443386   12.605419   10.929495
Si    3.769141   13.323376    9.067920
Si    1.505454   11.061853    2.082796
Si    3.987381   10.499111    4.033369
Si    4.494339   11.085733    6.967591
Si    7.690650   11.299847    6.714117
Si    8.678936   10.488961    4.025874
Si    6.441277   11.178860    2.235363
Si    1.586143    6.516724    2.269088
Si    3.907694    7.273880    4.304508
Si    4.555405    6.555129    7.194835
Si    7.615568    6.522892    7.006938
Si    8.544989    7.366411    4.150470
Si    6.188400    6.475134    2.468494
O    7.192103    1.164688    9.769857
O    6.333960    1.246473   12.236344
O    4.011007    1.156331    0.243437
O    1.907096    1.407456   12.035199
O    2.085291    0.913762    9.446257
O    4.583035    1.068178   10.282293
O    7.488428   16.744013   10.209757
O    6.185596   16.816645   12.468406
O    3.915703   17.088066    0.424241
O    1.836818   16.413691   12.288271
O    2.267692   16.659243    9.686616
O    4.837716   16.664816   10.213772
O    6.092094   18.896887   10.863918
O    1.669634   18.820871   11.205988
O    8.592241    2.572941    8.028061
O    8.264881   19.897011    7.591507
O    8.088688   17.234524    7.612117
O    3.755727    2.729944    8.440792
O    3.924913    0.163172    7.778467
O    3.919507   17.337601    7.774586
O   19.797752    0.741238   10.522518
O   19.923691   16.922907   10.537374
O    2.827106   18.734510    3.087726
O    3.751522   18.646557    5.548191
O    6.007801   18.738092    7.016841
O    8.099099   18.490946    5.348516
O    7.934918   18.983049    2.753285
O    5.424961   18.824654    3.523342
O    2.589645    3.164140    3.505945
O    3.761533    3.073003    5.833115
O    6.107911    2.821678    7.108113
O    8.173780    3.485310    5.534138
O    7.761127    3.236573    2.926594
O    5.251971    3.155584    3.608325
O    3.918506    0.994552    4.179913
O    8.262078    1.076337    4.510607
O    1.418158   17.331034    1.346731
O    1.752325    0.001592    0.902550
O    1.932123    2.650746    0.915531
O    6.334560   17.168062    1.674080
O    6.085887   19.729660    1.075190
O    6.085887    2.503692    1.092454
O   10.241253   19.232384    3.846542
O   10.106504    2.890131    3.770527
O   12.858728   11.105234    3.677515
O   13.681231   11.200551    1.170210
O   16.018801   11.108218   13.218122
O   18.189384   11.356758    1.353021
O   17.924696   10.858088    3.997770
O   15.446172   11.022852    3.105258
O   12.535975    6.794514    3.177660
O   13.775136    6.869135    0.911249
O   16.097486    7.130807   12.964112
O   18.193991    6.472349    1.102358
O   17.775932    6.722082    3.685009
O   15.186086    6.718300    3.164812
O   13.930507    8.950570    2.519350
O   18.359573    8.890078    2.186916
O   11.422551   12.509109    5.345037
O   11.753115    9.952286    5.859881
O   11.925503    7.291591    5.767538
O   16.274082   12.673873    5.003904
O   16.016998   10.123617    5.609083
O   16.106497    7.453967    5.596369
O    0.198418   10.776702    3.005286
O    0.164581    7.053997    2.841077
O   17.181278    8.785010   10.297014
O   16.265472    8.702230    7.859301
O   13.996979    8.781628    6.451275
O   11.922900    8.477173    8.095912
O   12.016803    9.037529   10.701851
O   14.527762    8.955744    9.865546
O   17.500229   13.099710    9.867688
O   16.258863   13.024095    7.606630
O   13.925502   12.767199    6.276895
O   11.839408   13.430631    7.793725
O   12.264276   13.182093   10.380926
O   14.845111   13.186272    9.863539
O   16.100090   10.953206    9.212857
O   11.765127   11.006932    8.870387
O   18.603239    7.387305   12.032254
O   18.269875    9.950892   12.470146
O   18.094681   12.594674   12.467469
O   13.687639    7.229704   11.705173
O   13.933310    9.768022   12.373253
O   13.931508   12.438666   12.290278
O    9.754518    9.279501    9.463253
O    9.874850   12.760234    9.523745
O   12.834502   18.740679    3.617827
O   13.757317   18.647552    1.159771
O   16.018801   18.742470   13.060069
O   18.107897   18.490351    1.343787
O   17.938311   18.982851    3.938617
O   15.449374   18.830225    3.121049
O   12.610657    3.157374    3.254210
O   13.770731    3.082753    0.913390
O   16.094885    2.820484   12.964247
O   18.190187    3.483320    1.100083
O   17.786943    3.229210    3.692905
O   15.260568    3.229807    3.091205
O   13.932909    1.003109    2.520153
O   18.349762    1.071163    2.174336
O   11.424552   17.336010    5.339951
O   11.758120   -0.015322    5.849576
O   11.853624    2.652935    5.776237
O   16.279488   17.176022    5.002164
O   16.096085   19.729460    5.611358
O   16.106297    2.504488    5.586332
O    0.223045   19.157166    2.858341
O    0.139353    2.895106    2.845627
O   17.196495    1.165484   10.297550
O   16.266073    1.249657    7.845383
O   14.004787    1.167275    6.365356
O   11.928507    1.419396    8.041041
O   12.094890    0.912568   10.638548
O   14.594436    1.071760    9.868625
O   17.456581   16.742821    9.876922
O   16.194193   16.827190    7.611046
O   13.918894   17.083689    6.269668
O   11.843413   16.414684    7.788639
O   12.267879   16.663223   10.383870
O   14.832898   16.661831    9.865546
O   16.097887   18.902857    9.211386
O   11.765327   18.836792    8.865703
O   18.601038    2.569359   12.038277
O   18.274679   19.900593   12.483261
O   18.101290   17.247856   12.463856
O   13.686638    2.738699   11.706779
O   13.935913    0.234012   12.380881
O   13.923298   17.414013   12.289207
O    9.809979    0.741636    9.541009
O    9.914093   17.078318    9.531908
O    7.078377    9.365464    9.192783
O    5.951139    8.454090   12.314635
O    3.832411    9.194333    0.327081
O    1.831012    8.539855   12.043763
O    2.169183    9.040315    9.458168
O    4.753623    8.880725   10.205608
O    7.418952   13.104884   10.189147
O    6.247464   13.115829   12.473358
O    3.923311   12.764014    0.418754
O    1.843626   13.432222   12.271141
O    2.258281   13.099114    9.615953
O    4.761432   12.935943   10.294337
O    6.247064   10.874007   11.133452
O    1.666231   11.017280   11.207192
O    8.579627    7.462722    7.942142
O    8.594043   10.026111    7.199519
O    8.008199   12.609598    7.608102
O    3.760732    7.215178    8.443468
O    4.008204    9.774190    7.771241
O    4.086690   12.430110    7.764683
O   19.791946    9.206073   10.456406
O   19.933702   12.927982   10.540050
O    2.837518   11.021061    3.010372
O    3.749120   11.112995    5.517410
O    6.099902   11.016883    6.769122
O    8.175182   11.529082    5.179221
O    7.998388   10.933904    2.622533
O    5.441579   11.017479    3.512502
O    2.687753    6.646465    3.445454
O    3.674037    6.879084    5.858408
O    6.088890    7.129414    7.026744
O    8.166173    6.486079    5.467625
O    7.742307    6.805657    2.838401
O    5.336263    6.625969    3.850824
O    3.998393    8.875949    4.091451
O    8.255470    8.952560    4.427632
O    1.420761   12.514879    1.348203
O    1.423764    9.927014    0.910847
O    2.011210    7.306117    0.919412
O    6.326752   12.688995    1.669663
O    6.100904   10.107299    1.069436
O    5.590142    7.469289    1.339504
O   10.279895   10.617708    3.774274
O   10.102701    7.132996    3.774407
O    8.594644   14.918281    8.615039
O    3.921309   14.853210    8.540764
O    5.348877   14.930618    0.831218
O    2.418057   14.920271    0.999978
O    1.496845    4.968184    1.838690
O    6.018813    4.981715    1.844980
O    4.661522    4.976143    7.517097
O    7.668626    5.003603    7.606898
O   11.420949    4.986490    4.770504
O   16.179577    4.974750    4.865122
O   14.599641    4.978133   12.562623
O   17.601339    4.977138   12.383825
O   18.442265   14.924051   11.542570
O   13.850218   14.922857   11.623270
O   15.430554   14.923454    5.937636
O   12.429056   14.921863    5.690184
Pt    7.893473    8.170132   -1.528339
