300
Pt6@Silicalite-1-2W_FS
Si    8.465302    1.051861    8.786609
Si    6.059258    0.534288   10.815740
Si    5.595748    1.188567    0.402828
Si    2.387023    1.362087    0.275021
Si    1.395734    0.537671   10.909956
Si    3.600156    1.205481    9.002209
Si    8.502542   16.465427    9.010239
Si    6.176587   17.196318   10.982358
Si    5.438175   16.485525    0.536926
Si    2.402440   16.439758    0.412598
Si    1.432574   17.324865   10.978745
Si    3.733502   16.383642    9.106061
Si    1.556911   18.801968    2.060580
Si    3.943333   19.291882    4.109786
Si    4.384017   18.729137    7.031963
Si    7.560907   18.557211    6.901881
Si    8.636690   19.369091    4.188478
Si    6.399031   18.684166    2.310174
Si    1.447190    3.414668    2.393014
Si    3.861042    2.627464    4.290456
Si    4.544794    3.424220    7.227757
Si    7.621574    3.487698    7.198314
Si    8.602653    2.562195    4.420137
Si    6.356585    3.455063    2.482011
Si   11.569712   11.000566    4.615530
Si   14.071261   10.585073    2.664689
Si   14.434260   11.148215   13.092321
Si   17.638380   11.316562   13.179847
Si   18.645687   10.500106    2.591618
Si   16.459486   11.236567    4.488658
Si   11.663815    6.578211    4.456807
Si   14.050638    7.393474    2.507439
Si   14.721775    6.683079   12.982046
Si   17.762716    6.553537   13.171683
Si   18.712761    7.395264    2.589744
Si   16.387606    6.467772    4.412375
Si   18.551382    8.882117   11.385052
Si   16.231033    9.522468    9.368903
Si   15.685835    8.795358    6.427721
Si   12.503939    8.653479    6.540540
Si   11.473407    9.508141    9.259296
Si   13.721076    8.865204   11.126225
Si   18.517546   13.479583   11.163563
Si   16.203403   12.686408    9.243237
Si   15.476604   13.375113    6.301653
Si   12.434463   13.393420    6.271140
Si   11.463797   12.572784    9.126671
Si   13.688040   13.404962   11.010462
Si   11.562304   18.817490    4.655678
Si   13.992373   19.373468    2.669240
Si   14.357575   18.798586   13.071177
Si   17.555490   18.614321   13.209690
Si   18.636877   19.338245    2.547588
Si   16.431053   18.657303    4.434055
Si   11.654406    3.395366    4.465640
Si   13.890862    2.685967    2.499811
Si   14.610053    3.488096   12.940960
Si   17.647390    3.500632   13.074255
Si   18.533964    2.531551    2.515603
Si   16.246050    3.444517    4.409029
Si   18.488314    1.120712   11.416234
Si   16.112904    0.622242    9.359267
Si   15.591532    1.098226    6.432271
Si   12.487521    1.246274    6.541610
Si   11.422551    0.547222    9.283653
Si   13.636583    1.327462   11.123549
Si   18.495722   16.533682   11.095712
Si   16.127319   17.285069    9.170701
Si   15.425749   16.509804    6.232329
Si   12.396421   16.453688    6.273416
Si   11.458390   17.330637    9.157318
Si   13.706861   16.446722   11.021704
Si    8.553598    9.223783    8.441729
Si    6.261480    9.399094   10.578727
Si    5.309033    8.731880    0.422234
Si    2.280305    8.664224    0.278768
Si    1.460805    9.454811   10.849598
Si    3.667830    8.890277    8.849108
Si    8.478716   13.354816    8.912945
Si    6.215229   12.508711   10.992529
Si    5.446985   13.366358    0.476167
Si    2.403641   13.400385    0.403096
Si    1.396735   12.573382   10.958135
Si    3.743913   13.299099    9.069392
Si    1.485632   11.019270    2.005309
Si    3.959551   10.464288    3.954007
Si    4.403238   11.085335    6.873509
Si    7.583733   11.400734    6.691768
Si    8.581830   10.509259    4.070707
Si    6.418252   11.044541    2.093637
Si    1.561916    6.529857    2.346709
Si    3.951742    7.265523    4.299423
Si    4.551201    6.590947    7.242879
Si    7.631385    6.637510    7.037317
Si    8.645299    7.419143    4.268106
Si    6.338765    6.532444    2.505565
O    7.255372    1.086883    9.869293
O    6.260879    1.240106   12.287201
O    3.989583    1.165285    0.403497
O    1.919509    1.495211   12.116567
O    2.088695    0.995348    9.523075
O    4.596851    0.986592   10.280554
O    7.503644   16.580046   10.285639
O    6.252069   16.814257   12.551247
O    3.914901   17.083292    0.418353
O    1.829811   16.423042   12.274352
O    2.255879   16.746004    9.697858
O    4.837315   16.584822   10.294872
O    6.170380   18.822065   10.869138
O    1.767342   18.894897   11.290435
O    8.589437    2.552843    8.122009
O    8.268085   19.834528    7.624965
O    7.834008   17.168657    7.696028
O    3.755126    2.727357    8.456718
O    3.850431    0.167749    7.781814
O    4.015412   17.397099    7.864654
O   19.843603    0.752381   10.615797
O   19.870432   17.252035   10.620080
O    2.821500   18.744062    3.080901
O    3.662224   18.652527    5.577633
O    5.983174   18.895494    6.793211
O    8.182190   18.393839    5.412353
O    7.920302   18.987228    2.780988
O    5.419555   18.831818    3.600429
O    2.509357    3.163742    3.590525
O    3.766739    3.069819    5.850379
O    6.099502    2.896697    7.196441
O    8.168776    3.485907    5.681084
O    7.825398    3.077380    3.087726
O    5.180892    3.304428    3.602971
O    3.924712    1.013058    4.175898
O    8.258875    0.991567    4.679634
O    1.420761   17.344168    1.342984
O    1.674240    0.064075    0.923695
O    1.928319    2.732133    1.001048
O    6.260078   17.169455    1.758125
O    6.088890   19.719313    1.094729
O    6.101104    2.512249    1.180247
O   10.207415   19.164728    3.838244
O   10.193399    2.732730    4.250441
O   12.760020   10.944650    3.526153
O   13.846214   11.263630    1.209556
O   16.049034   11.031209   13.047087
O   18.104092   11.374666    1.340709
O   17.948523   11.023051    3.940892
O   15.412535   11.274774    3.257288
O   12.683936    6.955496    3.256485
O   13.849017    7.042655    0.927977
O   16.256662    7.199060   13.280219
O   18.436857    6.474936    1.267638
O   17.870235    6.808641    3.849219
O   15.335851    6.625372    3.170433
O   14.344361    8.980418    2.673923
O   18.279884    8.937635    2.264805
O   11.510448   12.495378    5.277988
O   11.761523    9.871894    5.770884
O   12.186991    7.217367    5.854928
O   16.427050   12.688199    5.191132
O   16.180779   10.034866    5.526778
O   16.016798    7.387106    5.694199
O    0.181600   10.777896    2.931814
O    0.268295    7.291193    3.008365
O   17.269976    8.783816   10.379587
O   16.423445    8.870178    7.882186
O   14.089682    8.954550    6.608659
O   11.926304    8.534880    8.041577
O   12.176179    8.950969   10.621151
O   14.684134    9.356112    9.886022
O   17.344458   13.514804   10.041265
O   16.259665   13.179506    7.705128
O   13.951929   12.762025    6.280910
O   11.845416   13.426652    7.787702
O   12.168771   13.259500   10.438071
O   14.698550   13.011957    9.788058
O   16.595634   11.111204    9.367029
O   11.999986   11.033598    8.953495
O   18.685732    7.473070   12.203824
O   18.435856   10.108493   12.451677
O   18.017597   12.762223   12.537462
O   14.104498    7.361635   11.629694
O   13.847415    9.783940   12.456227
O   13.928104   12.449809   12.289609
O    9.856030    9.443469    9.399149
O    9.852426   12.596864    9.360740
O   12.846115   18.827837    3.674838
O   13.678829   18.819479    1.172083
O   15.963540   18.907831   13.214776
O   18.107296   18.396029    1.335222
O   17.950523   18.843956    3.928178
O   15.433158   18.820475    3.164946
O   12.446075    3.149614    3.076082
O   13.847816    3.067829    0.927308
O   16.129522    2.894110   12.964647
O   18.107096    3.478146    1.258270
O   17.674221    2.904060    3.843999
O   15.102795    3.482524    3.243370
O   14.094887    1.093848    2.753285
O   18.269474    0.975847    2.105280
O   11.431360   17.323870    5.287222
O   11.673827    0.014725    5.856401
O   12.426053    2.643184    5.696608
O   16.269676   17.159903    5.017688
O   16.185385   19.739012    5.610957
O   15.762319    2.483992    5.617113
O    0.194213   19.149008    2.858743
O    0.071078    2.736311    2.924320
O   17.260164    1.162102   10.365803
O   16.356173    1.235330    7.867733
O   14.022608    0.754570    6.693508
O   11.839008    1.491032    8.019228
O   12.098293    1.161903   10.623158
O   14.661710    1.154540    9.872640
O   17.441563   16.653673    9.869561
O   16.192392   16.840126    7.618006
O   13.902075   17.096624    6.271809
O   11.839008   16.505026    7.804698
O   12.190194   16.664419   10.453462
O   14.756013   16.673969    9.793680
O   16.104294   18.898081    9.366494
O   11.918495   18.905842    9.028841
O   18.609247    2.578911   12.135839
O   18.337149   19.882484   12.561151
O   17.846609   17.250643   12.393060
O   13.769329    2.831628   11.714006
O   13.854423    0.236201   12.298710
O   13.936913   17.430529   12.297237
O    9.824995    0.675372    9.607254
O    9.858232   17.255617    9.443046
O    7.196106    9.616192    9.199073
O    5.345874    8.456677   12.209980
O    3.761533    9.044891    0.822385
O    2.085491    8.538263   12.051927
O    2.175390    9.119314    9.444116
O    4.756627    9.450035    9.880267
O    7.426360   13.179903   10.127585
O    6.243059   13.264076   12.447796
O    3.918105   12.767796    0.410055
O    1.824004   13.439187   12.269267
O    2.252875   13.099314    9.689292
O    4.836314   12.930967   10.212434
O    6.349977   10.919179   11.286152
O    1.673239   11.011311   11.292174
O    8.589838    7.707679    7.787969
O    8.668725   10.279426    7.193095
O    7.842617   12.775356    7.525663
O    3.839619    7.295172    8.519485
O    3.757128    9.701360    7.434659
O    3.926114   12.355091    7.766691
O   19.918285    9.117523   10.544065
O   19.848608   12.767796   10.549417
O    2.819698   10.949027    2.918966
O    3.834213   11.279748    5.354672
O    6.028023   10.946837    6.856111
O    7.929513   11.601316    5.103340
O    7.940525   10.768146    2.594428
O    5.428765   10.769538    3.345884
O    2.832913    6.553736    3.358196
O    3.742913    6.869931    5.860014
O    6.090492    7.136179    7.103429
O    8.173181    6.467175    5.516205
O    7.849825    6.956292    2.923918
O    5.421357    6.708351    3.848415
O    3.834814    8.867990    4.181117
O    8.265081    8.975444    4.592778
O    1.420160   12.506920    1.337631
O    1.338471    9.871894    0.838980
O    1.910299    7.212790    0.914460
O    6.261480   12.599649    1.655879
O    6.179190   10.041433    0.836973
O    5.759929    7.457150    1.326925
O   10.176982   10.699892    3.848951
O   10.235447    7.211398    4.016774
O    8.834707   14.925643    8.626414
O    3.841421   14.854604    8.547455
O    5.348476   14.922658    0.914594
O    2.415454   14.922460    0.996632
O    1.240563    4.973357    2.021235
O    6.333759    4.989675    1.934914
O    4.584437    4.998828    7.533558
O    7.681440    5.079419    7.694556
O   11.586931    4.981516    4.766356
O   16.415037    4.948682    5.000290
O   14.677527    5.082006   12.716125
O   17.692039    5.045392   12.551113
O   18.852314   15.017975   11.541634
O   13.927703   14.924051   11.545247
O   15.353870   14.933602    5.937903
O   12.423050   14.926041    5.705307
O    9.006096    2.414346   12.642920
O    9.686844    8.464040   14.387260
Pt    7.015909    5.072852   -3.516785
Pt    9.073569    7.144736   -0.237682
Pt    9.164870    6.040143   -2.531796
Pt    6.445082    4.857147   -1.096603
Pt    6.986877    7.385116   -1.872014
Pt    8.848522    4.648407   -0.308880
H    8.115316    2.127203   12.343810
H    9.601350    2.272665   11.882096
H    8.917999    8.998129   14.679947
H   10.563406    6.954700   12.925436
