306
Pt6@H-MFI-2W
Si    8.430863    1.037136    8.744587
Si    6.055254    0.526130   10.812126
Si    5.575726    1.187174    0.391720
Si    2.359993    1.373230    0.216002
Si    1.382519    0.535880   10.835680
Si    3.610768    1.190955    8.997659
Si    8.491330   16.602930    9.062031
Si    6.090692   17.193333   10.971384
Si    5.488431   16.454285    0.586711
Si    1.415155   17.334816   10.881316
Si    3.686450   16.384836    9.060559
Si    1.508458   18.837191    2.075302
Si    3.942131   19.267406    4.065086
Si    4.381214   18.722174    6.988336
Si    7.548894   18.546267    6.860929
Si    8.626879   19.364513    4.187541
Si    6.417050   18.689341    2.314322
Si    1.449392    3.498443    2.318069
Si    4.517163    3.472774    7.345795
Si    7.575724    3.473171    7.218523
Si    8.611061    2.561996    4.431914
Si    6.535581    3.469988    2.424063
Si   11.552894   10.938878    4.643633
Si   14.032018   10.647757    2.661076
Si   14.450277   11.158165   13.102225
Si   17.678625   11.332282   13.235119
Si   18.748199   10.506076    2.649968
Si   11.659210    6.604478    4.465238
Si   14.060248    7.438644    2.514934
Si   14.766425    6.725464   13.008410
Si   17.758112    6.587564   13.198048
Si   18.766819    7.408597    2.596837
Si   16.416637    6.499810    4.398056
Si   18.523352    8.885501   11.414093
Si   16.218620    9.500977    9.396740
Si   15.686436    8.765510    6.490756
Si   12.489122    8.623431    6.620838
Si   11.451982    9.455606    9.325007
Si   13.739496    8.863612   11.142552
Si   18.549181   13.510626   11.204247
Si   16.219421   12.669295    9.315237
Si   15.462990   13.451325    6.406443
Si   12.438267   13.343872    6.279170
Si   11.468201   12.479857    9.147816
Si   13.686638   13.397002   11.009257
Si   11.524262   18.827639    4.719381
Si   13.987369   19.413664    2.811635
Si   17.637779   18.645761   13.277007
Si   18.720369   19.386003    2.578369
Si   16.455681   18.673620    4.443156
Si   11.664617    3.419643    4.491870
Si   13.864433    2.694524    2.483885
Si   17.771126    3.530282   13.067429
Si   18.567602    2.542097    2.532465
Si   16.238243    3.456257    4.375037
Si   18.496122    1.116533   11.370732
Si   16.065853    0.625227    9.352710
Si   15.597538    1.119120    6.432137
Si   12.503939    1.277118    6.560748
Si   11.397723    0.556575    9.280040
Si   13.590533    1.428549   11.059979
Si   18.503931   16.587807   11.086209
Si   16.104294   17.291834    9.194790
Si   15.403325   16.571091    6.252002
Si   12.382205   16.449509    6.332033
Si   11.462996   17.366455    9.207371
Si   13.687639   16.442545   11.046597
Si    8.501141    9.094440    8.633508
Si    6.051850    9.518886   10.656214
Si    5.534481    8.697057    0.289207
Si    2.400638    8.632982    0.177860
Si    1.418158    9.447846   10.804230
Si    3.589544    8.963305    8.784735
Si    6.117522   12.615370   10.997480
Si    5.404538   13.325366    0.508554
Si    2.398035   13.357801    0.370308
Si    1.392530   12.559254   10.923875
Si    3.688453   13.291536    9.056276
Si    1.579736   10.968130    1.944818
Si    4.017014   10.472844    3.938483
Si    4.385018   11.091105    6.835233
Si    7.556503   11.333277    6.745166
Si    8.577024   10.473839    4.077532
Si    6.460899   11.045537    2.111034
Si    1.582539    6.546174    2.286084
Si    3.940730    7.257762    4.308925
Si    4.521368    6.628755    7.255861
Si    7.597348    6.616020    7.068499
Si    8.600250    7.418347    4.292597
Si    6.318142    6.559307    2.554146
Al    2.160374   16.381454    0.403765
Al    3.758330    2.635623    4.330471
Al   16.465092   11.118566    4.433253
Al   14.462690   18.884350   12.958090
Al   14.467296    3.535654   12.874179
Al    8.416247   13.205773    8.970224
O    7.253370    1.083899    9.863940
O    6.266085    1.241698   12.284524
O    3.982376    1.166081    0.258961
O    1.910900    1.491629   12.044299
O    2.079084    0.987985    9.447729
O    4.585238    0.909981   10.283765
O    7.438974   16.572285   10.275869
O    6.157766   16.815649   12.546027
O    3.923711   17.167067    0.671157
O    1.838019   16.423639   12.114024
O    2.189806   16.823212    9.529366
O    4.755625   16.589397   10.299022
O    6.176187   18.813311   10.871680
O    1.764339   18.904846   11.208129
O    8.598448    2.493345    8.024179
O    8.261477   19.805275    7.602882
O    7.835609   17.166668    7.692014
O    3.763735    2.747256    8.590548
O    3.920308    0.171529    7.770706
O    4.095700   17.395109    7.853011
O   19.821178    0.755565   10.529209
O   19.840799   17.326458   10.538444
O    2.919608   18.658895    2.926327
O    3.665027   18.581289    5.526778
O    5.988580   18.897484    6.770192
O    8.177185   18.333546    5.370197
O    7.933116   18.997576    2.770816
O    5.428164   18.747446    3.594005
O    2.596052    3.471779    3.421632
O    3.840019    3.151604    5.947004
O    6.076076    2.896299    7.358242
O    7.924507    3.474763    5.602392
O    8.000992    3.073997    3.001673
O    5.502245    3.232792    3.773605
O    3.908094    0.952565    4.082886
O    8.257273    0.987388    4.679901
O    1.243967   17.415009    1.416724
O    1.674240    0.084372    0.918341
O    1.916506    2.748450    0.929985
O    6.345572   17.166071    1.754913
O    6.076076   19.716526    1.097005
O    6.082884    2.481206    1.245556
O   10.200607   19.157364    3.847211
O   10.197804    2.736113    4.354025
O   12.688142   10.931714    3.513841
O   13.766726   11.265223    1.177436
O   16.074863   11.110607   13.057392
O   18.118708   11.374069    1.406687
O   18.105293   11.026633    4.010617
O   15.273982   11.439736    3.264248
O   12.680332    6.964252    3.257556
O   13.848617    7.061956    0.940557
O   16.285694    7.292585   13.297215
O   18.438459    6.474936    1.284768
O   17.921091    6.811826    3.856312
O   15.339054    6.641092    3.169764
O   14.344562    9.032753    2.676466
O   18.355768    8.948381    2.264939
O   11.519657   12.452795    5.286553
O   11.765527    9.869308    5.853456
O   12.184788    7.218163    5.863092
O   16.522154   12.783715    5.268486
O   16.172169   10.038648    5.693664
O   16.018200    7.380340    5.694199
O    0.320752   10.692529    2.919234
O    0.322955    7.303132    3.006357
O   17.199898    8.783220   10.468451
O   16.424646    8.780235    7.957264
O   14.076467    8.869979    6.704081
O   11.848418    8.455085    8.105146
O   12.173777    8.944004   10.694757
O   14.664713    9.366261    9.885487
O   17.334646   13.515003   10.117548
O   16.269075   13.196818    7.767895
O   14.002185   12.767199    6.273282
O   11.844614   13.350239    7.787167
O   12.194199   13.262286   10.387618
O   14.704356   13.009967    9.789531
O   16.597837   11.098667    9.365424
O   12.015202   10.952011    8.952559
O   18.690336    7.466702   12.207839
O   18.434654   10.117448   12.468540
O   18.095284   12.765208   12.570117
O   14.174574    7.375166   11.628221
O   13.862832    9.792498   12.462251
O   13.927503   12.451401   12.286665
O    9.836207    9.445260    9.529633
O    9.911691   12.517665    9.439432
O   12.775638   18.816296    3.680191
O   13.590733   18.820673    1.258404
O   16.090479   18.994989   13.468652
O   18.357170   18.402994    1.338701
O   17.953728   18.903454    3.925903
O   15.429152   18.814306    3.174983
O   12.429256    3.149813    3.094016
O   13.760519    2.899881    0.918074
O   16.197798    2.802376   12.961168
O   18.112301    3.476753    1.262552
O   17.676422    2.901075    3.840787
O   15.109802    3.479738    3.182477
O   14.094087    1.099420    2.841345
O   18.269674    0.991567    2.099927
O   11.418746   17.334219    5.356010
O   11.665618    0.072631    5.852520
O   12.438666    2.656516    5.708385
O   16.266672   17.169853    5.018625
O   16.180578   19.743389    5.614972
O   15.762319    2.492748    5.601856
O    0.265692   19.319939    3.012915
O    0.103113    2.745067    2.909464
O   17.193090    1.174240   10.393105
O   16.358574    1.237917    7.866126
O   14.027213    0.755167    6.690162
O   11.839609    1.496405    8.024580
O   12.026215    1.157923   10.631857
O   14.573813    1.085889    9.786185
O   17.420942   16.650091    9.872238
O   16.185984   16.850075    7.629783
O   13.864635   17.153734    6.282114
O   11.759321   16.493685    7.849532
O   12.160361   16.596165   10.446368
O   14.689140   16.746799    9.784445
O   16.108900   18.902857    9.366226
O   11.927106   18.916985    9.028708
O   18.682127    2.574931   12.125534
O   18.355768   19.916910   12.549239
O   17.851816   17.319294   12.380881
O   13.677629    2.983656   11.453573
O   13.952531    0.485735   12.307676
O   13.856826   17.424559   12.295096
O    9.790958    0.666815    9.546362
O    9.841213   17.407047    9.453885
O    7.100202    9.354520    9.374524
O    5.268589    8.694470   11.954098
O    3.914501    8.954550    0.587514
O    2.085291    8.518961   11.963466
O    2.085091    9.124686    9.365825
O    4.657517    9.625345    9.780699
O    7.266984   13.366158   10.195304
O    6.165774   13.283179   12.477908
O    3.909095   12.691185    0.410457
O    1.837419   13.432025   12.214932
O    2.167582   13.096527    9.601634
O    4.670331   12.933952   10.292598
O    6.343370   11.027629   11.212010
O    1.667232   10.996784   11.267683
O    8.599850    7.558038    7.951510
O    8.508949   10.128193    7.357438
O    7.765933   12.760831    7.447773
O    3.839419    7.370988    8.522696
O    3.669231    9.713696    7.341914
O    3.932921   12.353896    7.760133
O   19.860622    9.122697   10.537106
O   19.836996   12.772969   10.547009
O    2.925615   10.943455    2.844423
O    3.834613   11.340838    5.312783
O    5.996589   10.860277    6.854639
O    8.008599   11.519730    5.179489
O    7.997187   10.781477    2.593492
O    5.522067   10.768542    3.413067
O    2.833513    6.554731    3.340129
O    3.679843    6.868936    5.872862
O    6.075876    7.145930    7.099280
O    8.099899    6.468568    5.529187
O    7.853429    6.950522    2.923516
O    5.420155    6.628158    3.927376
O    3.913700    8.867193    4.181786
O    8.187797    8.958331    4.597730
O    1.409749   12.426925    1.257868
O    1.498847    9.860353    0.756943
O    1.923313    7.213786    0.843129
O    6.263883   12.605419    1.675552
O    6.173182   10.111676    0.831218
O    5.671632    7.463120    1.419803
O   10.179986   10.612535    3.861531
O   10.196203    7.210801    4.085428
O    9.006495   15.019567    8.698548
O    3.834213   14.852414    8.539960
O    5.335463   14.914699    0.923026
O    2.418858   14.821174    1.006803
O    1.090398    5.033054    1.926215
O    6.342569    4.996440    1.996878
O    4.585438    5.055739    7.620147
O    7.688047    5.053550    7.682377
O   11.581726    4.998629    4.765687
O   16.422443    4.957836    4.936989
O   14.851918    5.158617   12.798698
O   17.688635    5.052754   12.555797
O   18.855318   15.073891   11.542972
O   13.930105   14.917684   11.541366
O   15.351067   14.986534    5.949011
O   12.424452   14.918281    5.780921
O    8.769035    2.567568   12.221356
O   11.187693    4.307735   12.556065
Pt    7.119823    5.088572   -3.558540
Pt    9.564309    7.204433   -0.555528
Pt    9.032525    6.698004   -3.021346
Pt    6.556804    5.287961   -1.165258
Pt    7.234149    7.864682   -1.225214
Pt    9.009500    4.765413   -0.971204
H    7.816588    2.335944   12.155244
H    9.157863    2.299329   11.368055
H   11.637788    3.989352   11.746126
H   11.374298    3.639925   13.242345
H   16.200602    1.841254   13.162181
H    5.928113    3.604107   17.961594
H    3.805982   17.697176   14.886982
H    9.861435   15.017776    8.212880
H   17.454779   13.051953   18.781702
H   12.853924   18.178732   14.662416
