293
Pt5@Silicalite-1
Si    8.447882    1.114543    8.746996
Si    6.059658    0.606124   10.773181
Si    5.621176    1.170658    0.307541
Si    2.407846    1.292639    0.184685
Si    1.350484    0.476979   10.821226
Si    3.607964    1.203491    8.983473
Si    8.508749   16.483137    8.987889
Si    6.148756   17.282681   10.926149
Si    5.444983   16.495476    0.487543
Si    2.410649   16.436972    0.420360
Si    1.432975   17.227360   10.947562
Si    3.736506   16.374092    9.061094
Si    1.578134   18.781672    2.060848
Si    3.974367   19.283524    4.080343
Si    4.393828   18.692524    7.040529
Si    7.605958   18.594620    6.891174
Si    8.649504   19.426798    4.135213
Si    6.427463   18.677202    2.255705
Si    1.557511    3.420837    2.284880
Si    3.880664    2.600998    4.285371
Si    4.573025    3.400142    7.207951
Si    7.622375    3.464814    7.066492
Si    8.574020    2.644975    4.208686
Si    6.271691    3.439144    2.383245
Si   11.577520   11.037378    4.660228
Si   13.962742   10.561593    2.632169
Si   14.408431   11.137271   13.104366
Si   17.633175   11.239752   13.217988
Si   18.674118   10.445184    2.616377
Si   16.395014   11.162942    4.425491
Si   11.492427    6.554731    4.383736
Si   13.868238    7.340741    2.456583
Si   14.558597    6.553338   12.906834
Si   17.616756    6.498217   12.967592
Si   18.630671    7.300943    2.435305
Si   16.305515    6.490855    4.317089
Si   18.455879    8.840728   11.301409
Si   16.021204    9.348948    9.325409
Si   15.606748    8.766902    6.378070
Si   12.402027    8.631191    6.532510
Si   11.380704    9.482670    9.243371
Si   13.570711    8.755958   11.166374
Si   18.495522   13.374516   11.108960
Si   16.164160   12.564627    9.153170
Si   15.460187   13.342877    6.231794
Si   12.412639   13.402972    6.274888
Si   11.429958   12.598057    9.124128
Si   13.732889   13.419089   11.025317
Si   11.584728   18.804157    4.649923
Si   13.979761   19.293472    2.621730
Si   14.407831   18.739286   13.062478
Si   17.616957   18.603376   13.188412
Si   18.669914   19.415257    2.559901
Si   16.423445   18.684166    4.418531
Si   11.507845    3.421036    4.394041
Si   13.901475    2.614331    2.455647
Si   14.554592    3.400341   12.906967
Si   17.610149    3.458645   12.969197
Si   18.616455    2.655323    2.430888
Si   16.314926    3.464018    4.307319
Si   18.445868    1.115737   11.323893
Si   16.045429    0.610501    9.315639
Si   15.619162    1.180807    6.359334
Si   12.405831    1.313931    6.501194
Si   11.387512    0.480163    9.251266
Si   13.596339    1.222794   11.142954
Si   18.478304   16.469805   11.098255
Si   16.136530   17.293226    9.151029
Si   15.447973   16.504627    6.217474
Si   12.410836   16.441549    6.270471
Si   11.460192   17.259199    9.119310
Si   13.730287   16.429012   11.031741
Si    8.458493    9.004497    8.479469
Si    6.301324    9.182592   10.687932
Si    5.370701    8.823416    0.473758
Si    2.268893    8.738845    0.205964
Si    1.356290    9.466352   10.787368
Si    3.703870    8.749192    8.994982
Si    8.449884   13.341682    8.987889
Si    6.171581   12.404839   10.992261
Si    5.457797   13.354219    0.469208
Si    2.414052   13.398992    0.410724
Si    1.447390   12.604823   10.928960
Si    3.780754   13.314221    9.077154
Si    1.505854   11.062650    2.082662
Si    3.985579   10.500902    4.036581
Si    4.494339   11.082351    6.971606
Si    7.690049   11.294673    6.723352
Si    8.682740   10.491947    4.041265
Si    6.441678   11.186422    2.247407
Si    1.586343    6.518713    2.268419
Si    3.908695    7.273682    4.303839
Si    4.551601    6.558711    7.199920
Si    7.611563    6.537020    7.025808
Si    8.551396    7.376758    4.159570
Si    6.205819    6.504386    2.469699
O    7.193103    1.166280    9.769857
O    6.334360    1.247269   12.235140
O    4.011007    1.157326    0.243437
O    1.907096    1.407257   12.034931
O    2.085291    0.913961    9.446391
O    4.583837    1.068974   10.282427
O    7.488828   16.745008   10.209891
O    6.185596   16.818436   12.468807
O    3.916303   17.087669    0.424509
O    1.836818   16.413889   12.288405
O    2.268292   16.659443    9.685812
O    4.837315   16.665611   10.213505
O    6.092494   18.896887   10.863785
O    1.669634   18.820673   11.205988
O    8.592040    2.575130    8.030335
O    8.265081   19.898005    7.589901
O    8.089087   17.234125    7.612786
O    3.755927    2.729546    8.440792
O    3.925113    0.162973    7.778467
O    3.919507   17.335810    7.775390
O   19.797752    0.741437   10.522652
O   19.924091   16.923304   10.537374
O    2.827106   18.735107    3.087993
O    3.751522   18.647154    5.549663
O    6.007801   18.738491    7.016841
O    8.098899   18.490747    5.348917
O    7.934318   18.983446    2.753285
O    5.425161   18.825249    3.523342
O    2.590046    3.164936    3.504740
O    3.763335    3.073600    5.832446
O    6.108111    2.822474    7.108247
O    8.173982    3.486504    5.535477
O    7.768335    3.232394    2.931546
O    5.250770    3.161951    3.605113
O    3.919907    0.994950    4.179244
O    8.262279    1.075342    4.511275
O    1.418358   17.330637    1.346196
O    1.752726    0.001592    0.903353
O    1.933124    2.650746    0.915665
O    6.334160   17.166866    1.673410
O    6.086488   19.730455    1.076662
O    6.082283    2.502498    1.092856
O   10.241653   19.232582    3.846542
O   10.110108    2.889733    3.771062
O   12.859730   11.105433    3.677782
O   13.681231   11.200352    1.170343
O   16.019201   11.108021   13.217854
O   18.188986   11.356758    1.353289
O   17.924696   10.857889    3.997502
O   15.446172   11.022852    3.105124
O   12.535975    6.793320    3.176589
O   13.773133    6.868339    0.910713
O   16.096487    7.130608   12.963979
O   18.193590    6.472349    1.102491
O   17.775932    6.722082    3.684608
O   15.185486    6.718500    3.164143
O   13.930507    8.950570    2.519082
O   18.359173    8.890475    2.186916
O   11.422951   12.509706    5.345438
O   11.754114    9.953281    5.859211
O   11.926105    7.290198    5.766200
O   16.274082   12.674070    5.003904
O   16.017199   10.124213    5.608815
O   16.106697    7.453370    5.596102
O    0.198218   10.777497    3.006491
O    0.164180    7.053599    2.841612
O   17.181078    8.784812   10.298085
O   16.265272    8.702032    7.859435
O   13.999582    8.781827    6.449937
O   11.926704    8.479561    8.086946
O   12.017204    9.038126   10.696630
O   14.526961    8.956341    9.865145
O   17.501230   13.099910    9.868089
O   16.258863   13.024095    7.606764
O   13.925701   12.767199    6.277029
O   11.839609   13.432222    7.793055
O   12.264476   13.182490   10.381461
O   14.845312   13.186072    9.863539
O   16.099489   10.953603    9.213125
O   11.767930   11.015688    8.868379
O   18.602840    7.387504   12.031986
O   18.269474    9.950694   12.470146
O   18.094282   12.594873   12.467201
O   13.686038    7.228113   11.705441
O   13.932509    9.769216   12.373253
O   13.931307   12.438666   12.289877
O    9.766731    9.282884    9.462317
O    9.871647   12.760831    9.524548
O   12.834702   18.740879    3.617559
O   13.757317   18.647751    1.159637
O   16.019001   18.742670   13.060203
O   18.107897   18.490351    1.343787
O   17.938511   18.982851    3.938617
O   15.449575   18.830425    3.121585
O   12.611457    3.157971    3.252872
O   13.769931    3.083947    0.913256
O   16.094284    2.820683   12.964380
O   18.189987    3.483320    1.099949
O   17.786943    3.229210    3.692905
O   15.260568    3.229807    3.091072
O   13.932709    1.003109    2.520019
O   18.349762    1.070964    2.174336
O   11.424552   17.336010    5.340085
O   11.757919   -0.014924    5.849442
O   11.853825    2.652736    5.776772
O   16.279287   17.175821    5.002298
O   16.096085   19.729460    5.611358
O   16.106096    2.504488    5.586332
O    0.223446   19.157166    2.858207
O    0.138953    2.894707    2.845627
O   17.196495    1.165484   10.297684
O   16.266073    1.249856    7.845650
O   14.005189    1.167275    6.365356
O   11.928306    1.419595    8.041176
O   12.094689    0.912568   10.638950
O   14.594436    1.071959    9.868758
O   17.457182   16.742821    9.877190
O   16.194193   16.827391    7.611180
O   13.918894   17.083889    6.269668
O   11.843614   16.414684    7.788639
O   12.267879   16.663223   10.383736
O   14.833098   16.661831    9.865546
O   16.097887   18.902657    9.211386
O   11.765127   18.836792    8.865703
O   18.601038    2.569359   12.038410
O   18.274679   19.900791   12.483797
O   18.101290   17.247856   12.463588
O   13.686238    2.738898   11.706511
O   13.935913    0.234211   12.380881
O   13.923298   17.414211   12.289207
O    9.810780    0.743029    9.540741
O    9.913292   17.078117    9.531507
O    7.081781    9.376409    9.196397
O    5.918303    8.548014   12.370442
O    3.810187    9.201098    0.345415
O    1.829010    8.539258   12.044031
O    2.166981    9.039917    9.455491
O    4.741810    8.879332   10.206278
O    7.413145   13.096725   10.194768
O    6.248666   13.101302   12.465195
O    3.924112   12.763816    0.418888
O    1.842825   13.432222   12.272078
O    2.261685   13.099511    9.616623
O    4.773845   12.924202   10.299825
O    6.266686   10.803764   11.132248
O    1.665630   11.017082   11.207594
O    8.586034    7.464314    7.945889
O    8.598248   10.021933    7.205541
O    8.008599   12.609598    7.609039
O    3.757128    7.214382    8.443468
O    4.006602    9.770608    7.769099
O    4.087090   12.429911    7.764549
O   19.793148    9.206471   10.456139
O   19.935305   12.927982   10.539916
O    2.836517   11.020266    3.010907
O    3.748318   11.112796    5.519417
O    6.099702   11.015887    6.768184
O    8.176384   11.530476    5.188456
O    7.991581   10.942460    2.655723
O    5.436173   11.021061    3.517320
O    2.688754    6.645072    3.444650
O    3.675639    6.878089    5.857070
O    6.085486    7.129215    7.028618
O    8.172780    6.539011    5.499209
O    7.751517    6.808045    2.849508
O    5.336463    6.612637    3.844668
O    4.000196    8.874557    4.091049
O    8.256472    8.956738    4.429238
O    1.420761   12.515676    1.348605
O    1.415555    9.929602    0.911516
O    2.008407    7.304724    0.918877
O    6.327953   12.691582    1.670600
O    6.097300   10.115458    1.087770
O    5.581332    7.472075    1.346598
O   10.282098   10.617708    3.776014
O   10.104102    7.132000    3.775077
O    8.594243   14.915096    8.616511
O    3.922310   14.848435    8.543440
O    5.350479   14.926638    0.828274
O    2.418057   14.919872    1.000245
O    1.497045    4.968382    1.838824
O    6.097900    4.981317    1.827582
O    4.662523    4.976541    7.517097
O    7.671429    5.005593    7.611715
O   11.421350    4.986292    4.770370
O   16.179379    4.974949    4.864855
O   14.598440    4.977934   12.562355
O   17.601139    4.977337   12.383960
O   18.442064   14.923852   11.542704
O   13.850218   14.923255   11.623270
O   15.430554   14.923454    5.937769
O   12.429256   14.922260    5.689916
Pt    7.854830    5.736285   -0.025562
Pt    9.716475    7.012010   -1.728682
Pt    8.516357    5.221298   -2.618919
Pt    7.405937    7.348303   -1.711150
Pt   10.049042    5.515804   -0.538130
