318
Pt6H2@H-MFI-6W_IS
Si    8.440474    1.077133    8.753419
Si    6.063462    0.629604   10.825241
Si    5.597350    1.174837    0.374189
Si    2.439280    1.277715    0.180135
Si    1.423764    0.540258   10.818015
Si    3.682246    1.328258    9.036871
Si    8.607457   16.467417    9.052796
Si    6.159768   17.302179   10.913837
Si    5.423159   16.495476    0.470948
Si    2.384420   16.470999    0.444717
Si    1.397936   17.352724   11.020098
Si    3.628387   16.372700    9.143266
Si    1.538691   18.834204    2.052551
Si    3.939328   19.367300    4.061740
Si    7.696857   18.516218    6.929049
Si    8.633687   19.369289    4.145117
Si    6.415449   18.705656    2.213013
Si    1.650213    3.407107    2.336940
Si    3.947337    2.676018    4.373431
Si    4.538386    3.398749    7.260411
Si    7.598549    3.434767    7.200589
Si    8.641695    2.595824    4.360984
Si   11.602549   10.931714    4.619946
Si   14.160559   10.499508    2.713805
Si   14.442869   11.078769   13.124040
Si   17.652596   11.257263   13.238732
Si   18.727577   10.534730    2.678607
Si   16.463289   11.345216    4.517030
Si   11.758921    6.560502    4.465640
Si   14.259268    7.333975    2.564852
Si   14.871340    6.652236   13.031429
Si   18.917185    7.394269    2.701225
Si   16.543777    6.525877    4.456004
Si   18.565199    8.961117   11.302345
Si   16.184584    9.432126    9.371312
Si   15.633577    8.919926    6.423037
Si   12.469501    8.656463    6.600228
Si   11.489425    9.353127    9.386167
Si   13.723879    8.707802   11.165972
Si   18.486313   13.462668   11.131980
Si   16.151346   12.631288    9.254077
Si   15.476805   13.416305    6.290144
Si   12.450279   13.374317    6.232998
Si   13.789752   13.433218   11.142954
Si   11.534274   18.793013    4.641224
Si   13.954132   19.298647    2.649031
Si   14.398420   18.857487   13.100619
Si   17.538269   18.614918   13.225883
Si   18.616455   19.346006    2.558696
Si   16.400219   18.623873    4.412107
Si   11.722281    3.382631    4.540183
Si   13.940317    2.626867    2.456985
Si   14.662511    3.445114   12.966253
Si   17.707256    3.434368   12.996231
Si   18.695541    2.513443    2.408940
Si   18.530359    1.039325   11.383312
Si   16.078667    0.544835    9.424577
Si   15.551287    0.987786    6.482859
Si   12.459691    1.204288    6.564362
Si   11.370293    0.459070    9.320457
Si   13.624570    1.340596   11.177616
Si   18.456079   16.549999   11.114582
Si   16.162359   17.265766    9.155712
Si   15.422946   16.589598    6.233534
Si   12.396821   16.439360    6.307140
Si   11.507243   17.201094    9.242969
Si   13.861231   16.426825   11.036024
Si    8.550395    9.128865    8.654118
Si    6.108111    9.372429   10.633597
Si    5.315240    8.900226    0.379140
Si    2.241863    8.698648    0.263645
Si    1.462207    9.567638   10.784557
Si    3.611969    8.752774    8.708051
Si    8.337961   13.344270    8.981332
Si    6.010404   12.557065   10.996276
Si    5.388120   13.329942    0.493297
Si    2.364398   13.430830    0.258024
Si    1.372108   12.643029   10.812393
Si    3.721689   13.344668    9.034595
Si    1.521271   11.100657    2.001562
Si    3.907093   10.481799    3.969666
Si    4.476919   11.107821    6.853836
Si    7.651608   11.286513    6.757479
Si    8.649103   10.494931    4.044209
Si    6.369598   11.110408    2.188790
Si    1.676242    6.506575    2.240582
Si    3.990985    7.340741    4.146455
Si    4.471714    6.575624    7.030224
Si    8.703564    7.366411    4.233177
Si    6.402235    6.657410    2.422457
O    7.256373    1.160908    9.864610
O    6.350177    1.323681   12.281981
O    4.007603    0.913364    0.154975
O    1.842424    1.499390   12.062232
O    2.144556    0.992562    9.449335
O    4.586640    1.087679   10.379990
O    7.491231   16.751177   10.195571
O    6.171782   16.749386   12.431736
O    3.897683   17.092247    0.417148
O    1.751925   16.495874   12.334041
O    2.162576   16.586016    9.786721
O    4.830908   16.758739   10.121161
O    6.096498   18.910618   10.879041
O    1.846829   18.899473   11.200367
O    8.666522    2.561797    8.118530
O    8.179788   19.971035    7.524190
O    8.512353   17.332428    7.693084
O    3.762134    2.897892    8.611292
O    4.177190    0.393602    7.851405
O    3.587942   17.405855    7.784624
O   19.852814    0.664627   10.531217
O   19.829788   17.323671   10.711084
O    2.760633   18.817490    3.086387
O    3.757729   18.666855    5.493721
O    6.144151   18.316832    7.198180
O    8.099499   18.409958    5.354271
O    7.916899   18.976881    2.746861
O    5.401936   18.986034    3.438762
O    2.654316    3.330098    3.589187
O    3.680444    2.906448    5.970023
O    6.083284    2.811530    7.279148
O    8.098498    3.405913    5.674392
O    8.011202    3.152997    3.011175
O    5.334261    3.313979    3.927777
O    3.837817    1.078128    4.093057
O    8.340965    0.996940    4.599604
O    1.415756   17.330637    1.424085
O    1.665029    0.003980    0.833761
O    2.178193    2.654726    0.999442
O    6.262481   17.167664    1.679834
O    6.172983   19.655039    0.922089
O    5.923108    2.493743    1.178507
O   10.199006   19.071798    3.772266
O   10.269484    2.736113    4.343319
O   12.843111   10.692131    3.608325
O   13.845013   11.109015    1.240604
O   16.057243   11.032404   13.057259
O   18.106094   11.362528    1.404011
O   17.953527   11.015489    4.013829
O   15.427551   11.348399    3.263311
O   12.847116    6.881074    3.268932
O   14.014799    6.968431    1.002654
O   16.345961    7.285820   13.132069
O   18.607645    6.476328    1.419535
O   18.085670    6.892218    4.020923
O   15.584324    6.555328    3.105258
O   14.588029    8.931467    2.687173
O   18.523754    8.954351    2.351527
O   11.594940   12.449412    5.187786
O   11.673827    9.866123    5.860683
O   12.272084    7.229904    5.855999
O   16.439463   12.852565    5.113511
O   16.096085   10.285993    5.687508
O   15.944921    7.621914    5.519551
O    0.249274   10.947236    3.005019
O    0.500150    7.284029    3.086521
O   17.271778    8.708200   10.372896
O   16.424246    8.867193    7.865725
O   14.039025    9.040912    6.693374
O   11.921098    8.386036    8.113578
O   12.176579    8.630992   10.690876
O   14.674323    9.112150    9.884282
O   17.270376   13.499084   10.047421
O   16.189789   13.084986    7.713426
O   13.990373   12.766005    6.193653
O   11.845416   13.342877    7.706868
O   12.183187   13.358397   10.546607
O   14.674925   13.013549    9.867019
O   16.439463   11.041756    9.454688
O   12.012599   10.860277    9.200412
O   18.937609    7.460732   12.046307
O   18.355167    9.952683   12.549373
O   18.097485   12.613976   12.466666
O   14.099893    7.220949   11.701962
O   13.849216    9.778567   12.376197
O   13.925100   12.434885   12.384093
O    9.876852    9.293032    9.608058
O    9.690448   12.677652    9.533246
O   12.844112   18.738092    3.681797
O   13.679231   18.657104    1.165927
O   15.990170   19.065233   13.298688
O   18.112701   18.391850    1.342449
O   17.928900   18.899672    3.946781
O   15.441767   18.822065    3.107533
O   12.587030    3.161155    3.182344
O   13.771932    2.989427    0.866951
O   16.174973    2.817698   12.962641
O   18.188585    3.406510    1.185466
O   17.952925    3.132500    3.840252
O   15.273982    3.315173    3.014922
O   13.934912    1.009476    2.664689
O   18.189186    0.994552    2.186782
O   11.421949   17.335014    5.364308
O   11.600346    0.079397    5.769545
O   12.433461    2.661093    5.842483
O   16.260466   17.087471    4.933643
O   16.097689   19.572258    5.686705
O   15.773932    2.333755    5.677069
O    0.176194   19.229399    2.846029
O    0.240464    2.655124    2.768408
O   17.268373    1.078924   10.374101
O   16.347763    1.065194    7.918855
O   13.970951    0.668208    6.780765
O   11.756317    1.401487    8.038365
O   12.098894    1.091858   10.636943
O   14.664913    1.154540    9.951599
O   17.523054   16.658846    9.789665
O   16.259865   17.014242    7.564474
O   13.884856   17.155127    6.282248
O   11.848418   16.425232    7.856089
O   12.350571   16.504431   10.460153
O   14.866535   16.489305    9.770928
O   15.944319   18.824852    9.537930
O   11.843012   18.807938    9.113020
O   18.689735    2.476430   12.121117
O   18.368584   19.815622   12.544957
O   17.686832   17.238304   12.378071
O   13.765124    2.885355   11.702229
O   13.843410    0.335696   12.440703
O   14.102896   17.576786   12.138381
O    9.764929    0.592393    9.616756
O   10.005795   16.913952    9.777486
O    7.255972    9.623554    9.448800
O    5.259579    8.705613   12.131021
O    3.738708    9.047081    0.753597
O    1.914904    8.621043   12.041354
O    2.188004    9.119115    9.433543
O    4.846125    8.875551    9.711241
O    7.179288   13.258904   10.122232
O    6.256875   13.027875   12.541209
O    3.858239   12.770183    0.251868
O    1.754728   13.527539   12.124330
O    2.160574   13.096128    9.457097
O    4.598853   13.171148   10.391231
O    5.913497   10.957185   11.044723
O    1.751925   11.106230   11.206791
O    8.510350    7.551671    8.193875
O    8.664320   10.123815    7.350345
O    7.772541   12.674270    7.598198
O    3.498644    7.220551    8.185846
O    3.750521    9.785134    7.446435
O    4.172785   12.429911    7.779136
O   19.875439    9.363276   10.458280
O   19.800556   12.773169   10.456941
O    2.908195   11.114587    2.845761
O    3.838217   11.352380    5.356947
O    6.081882   10.852318    6.774742
O    8.097297   11.520725    5.194077
O    7.929713   10.857491    2.606741
O    5.438776   10.607361    3.422836
O    3.092398    6.560302    3.021346
O    3.673036    6.713724    5.602124
O    5.915699    7.285223    7.023934
O    8.185193    6.472349    5.441795
O    8.007999    6.976390    2.765463
O    5.570921    7.127822    3.768251
O    3.523872    8.916344    4.179779
O    8.350575    8.957535    4.506056
O    1.402541   12.503935    1.177303
O    1.331663    9.873287    0.923427
O    1.822402    7.207816    0.759218
O    6.085287   12.678051    1.826378
O    6.088890   10.267883    0.820913
O    5.853832    7.638629    1.237928
O   10.246258   10.693922    3.762229
O   10.337558    7.209408    3.999644
O    8.592641   14.917485    8.617313
O    3.832211   14.904749    8.519083
O    5.340668   14.917882    0.762028
O    2.411450   14.918678    0.920081
O    1.321652    4.948483    1.932505
O    6.181392    5.153443    1.919256
O    4.596050    4.996838    7.365602
O    7.588538    4.965994    7.780341
O   11.674227    4.982112    4.840230
O   16.511742    5.059122    5.102001
O   14.769028    5.045590   12.798698
O   17.845407    4.929778   12.465730
O   18.771626   15.009617   11.543105
O   14.014398   14.933404   11.711999
O   15.350867   14.998274    6.110009
O   12.431659   14.928628    5.694601
O    8.925407    2.326790   12.375260
O   11.192498    4.217394    9.280575
O    9.753517    8.527517   14.303617
O   11.096792    4.224359   11.791628
O   13.269179    5.732305    9.032321
O   11.514451    6.451852   13.371223
Al    4.537586   18.854700    7.012826
Al    6.374003    3.515556    2.536480
Al   17.862427    6.459614   13.256397
Al   11.336656   12.443243    9.073406
Al   16.176775    3.486305    4.474740
Al    7.514256    6.603284    7.039860
H   12.050641    4.708103    9.062031
H   19.895260    7.245226   12.051392
H   11.598945   14.056653   10.908618
H   18.606844    3.601520    4.397253
H    2.951643   17.110950    7.099547
H    6.427463    6.337434   12.109875
H    7.985775    2.010595   12.454220
H    9.254970    1.868317   11.575225
H    9.888865    5.739071    9.454555
H   11.130429    3.428200    8.710326
H    9.125627    8.111231   14.946268
H    9.325847    9.371633   14.059243
H   11.202109    4.144962   10.744408
H   11.372896    3.362334   12.157653
H   12.873144    6.578609    8.740170
H   13.617162    5.914182    9.926706
H   11.683837    5.555204   13.006938
H   11.745106    6.452251   14.317534
Pt    7.060157    4.783521   -3.443312
Pt    9.502040    7.038873   -0.742890
Pt    8.863739    6.619203   -3.176188
Pt    6.465504    4.732380   -0.989271
Pt    7.244560    7.882591   -1.304039
Pt    8.955039    4.532197   -1.384739
