312
Pt6@H-MFI-4W
Si    8.444077    1.039922    8.753285
Si    6.058457    0.529711   10.816543
Si    5.578129    1.195532    0.398010
Si    2.361795    1.377807    0.224834
Si    1.392730    0.534288   10.839160
Si    3.613370    1.188766    8.998863
Si    8.488527   16.602531    9.063102
Si    6.089291   17.194527   10.971919
Si    5.488831   16.456076    0.587246
Si    1.419159   17.331234   10.886804
Si    3.687051   16.386030    9.059756
Si    1.510259   18.837587    2.074499
Si    3.942532   19.278152    4.064952
Si    4.381614   18.723167    6.987131
Si    7.550096   18.550644    6.865345
Si    8.623675   19.369289    4.187541
Si    6.415649   18.692524    2.313251
Si    1.453597    3.513169    2.307765
Si    4.519166    3.479340    7.358376
Si    7.577326    3.477151    7.223341
Si    8.603453    2.576722    4.421877
Si    6.530976    3.513964    2.405460
Si   11.553694   10.943057    4.645106
Si   14.036022   10.650145    2.665492
Si   14.464293   11.161348   13.110924
Si   17.703651   11.339446   13.253453
Si   18.761414   10.516025    2.661745
Si   11.673225    6.595325    4.455469
Si   14.086878    7.440037    2.542235
Si   14.818282    6.756506   13.021793
Si   17.821983    6.589355   13.192962
Si   18.779835    7.424118    2.597641
Si   16.432255    6.491253    4.416256
Si   18.577011    8.888884   11.417573
Si   16.251257    9.496599    9.403297
Si   15.689439    8.767500    6.494235
Si   12.492326    8.621441    6.607857
Si   11.449982    9.452622    9.300382
Si   13.762922    8.868188   11.130775
Si   18.555788   13.511620   11.201437
Si   16.225227   12.670092    9.314836
Si   15.463591   13.452918    6.406978
Si   12.439868   13.346260    6.281178
Si   11.463595   12.482643    9.149690
Si   13.691043   13.396803   11.008990
Si   11.522059   18.828634    4.718444
Si   13.988170   19.415056    2.813107
Si   17.642185   18.644567   13.278078
Si   18.722771   19.385607    2.578369
Si   16.456882   18.673023    4.441818
Si   11.663416    3.414469    4.485714
Si   13.884056    2.700891    2.498740
Si   17.778734    3.531276   13.056456
Si   18.560595    2.541699    2.522562
Si   16.254259    3.463620    4.407290
Si   18.507135    1.113747   11.370732
Si   16.082069    0.622242    9.351372
Si   15.598739    1.113946    6.435216
Si   12.504740    1.276919    6.558339
Si   11.421148    0.557570    9.282850
Si   13.629776    1.427554   11.062522
Si   18.507135   16.588800   11.086477
Si   16.106297   17.290440    9.195459
Si   15.404125   16.571886    6.251869
Si   12.382404   16.451498    6.331899
Si   11.460393   17.364464    9.207236
Si   13.687240   16.442942   11.045794
Si    8.477315    9.093843    8.656124
Si    6.025220    9.516697   10.688869
Si    5.436373    8.731682    0.249727
Si    2.369403    8.665815    0.234203
Si    1.463608    9.455606   10.820825
Si    3.603559    8.986787    8.757835
Si    6.120925   12.645217   10.996678
Si    5.405540   13.333723    0.503602
Si    2.395632   13.357203    0.421431
Si    1.403342   12.573780   10.948097
Si    3.688052   13.298304    9.055741
Si    1.562517   10.968528    1.998751
Si    4.021619   10.462098    3.937412
Si    4.382215   11.095284    6.822386
Si    7.556303   11.325118    6.754534
Si    8.581228   10.477818    4.082886
Si    6.443480   11.041159    2.099257
Si    1.579135    6.564481    2.294114
Si    3.943133    7.245823    4.315616
Si    4.525573    6.616418    7.267237
Si    7.607358    6.601096    7.048291
Si    8.641094    7.409791    4.267838
Si    6.306129    6.597911    2.531796
Al    2.162776   16.367523    0.416880
Al    3.760732    2.649552    4.333416
Al   16.463490   11.120755    4.436732
Al   14.473303   18.877186   12.962641
Al   14.493324    3.560329   12.868959
Al    8.407238   13.210947    8.977049
O    7.258776    1.082506    9.865680
O    6.264483    1.239907   12.289742
O    3.980373    1.167076    0.328820
O    1.916506    1.491231   12.048849
O    2.080686    0.987388    9.448532
O    4.587240    0.909782   10.284836
O    7.439174   16.574076   10.277207
O    6.158166   16.816446   12.546429
O    3.922910   17.166470    0.670756
O    1.838220   16.420057   12.122456
O    2.189806   16.823212    9.531641
O    4.755225   16.590195   10.298755
O    6.176786   18.814505   10.871680
O    1.767142   18.902458   11.209869
O    8.600049    2.493345    8.025249
O    8.264080   19.808460    7.608235
O    7.836210   17.167465    7.691611
O    3.762935    2.744669    8.595767
O    3.920908    0.171927    7.770304
O    4.095099   17.397696    7.853144
O   19.831991    0.754371   10.531351
O   19.843603   17.326458   10.539515
O    2.920209   18.661680    2.927397
O    3.665427   18.584473    5.525306
O    5.989781   18.898279    6.770728
O    8.178386   18.339516    5.373542
O    7.933317   18.997375    2.771352
O    5.427363   18.750629    3.593871
O    2.591447    3.474167    3.421632
O    3.844224    3.159762    5.954498
O    6.077077    2.897892    7.359312
O    7.923506    3.476156    5.604935
O    8.001792    3.150609    3.006089
O    5.506450    3.241945    3.765843
O    3.910296    0.965698    4.087035
O    8.256071    0.996343    4.672541
O    1.244367   17.415407    1.416457
O    1.671837    0.085765    0.918341
O    1.919509    2.761185    0.923962
O    6.345973   17.167862    1.755314
O    6.081282   19.719709    1.096202
O    6.087889    2.486778    1.253318
O   10.198606   19.158159    3.847345
O   10.195202    2.736113    4.350947
O   12.686740   10.931714    3.511833
O   13.761121   11.260247    1.179042
O   16.088276   11.109612   13.134077
O   18.195793   11.431180    1.412174
O   18.099287   11.028225    4.013696
O   15.275384   11.442720    3.264649
O   12.694148    6.963854    3.252738
O   13.936713    7.065936    0.976959
O   16.350565    7.297163   13.293335
O   18.510738    6.477721    1.277541
O   17.928299    6.807249    3.850423
O   15.354470    6.634327    3.186626
O   14.346163    9.037728    2.681686
O   18.352766    8.959923    2.263065
O   11.520458   12.454983    5.287623
O   11.765727    9.870700    5.850780
O   12.183387    7.215577    5.857471
O   16.521553   12.785506    5.268352
O   16.170368   10.040239    5.695270
O   16.020002    7.383524    5.697946
O    0.322955   10.694519    2.999130
O    0.336169    7.369595    3.007695
O   17.261166    8.785807   10.457477
O   16.428051    8.779040    7.959138
O   14.078069    8.869581    6.702742
O   11.846817    8.452498    8.087214
O   12.193798    8.868587   10.641091
O   14.685135    9.367653    9.881472
O   17.338451   13.515600   10.116879
O   16.269075   13.196420    7.767895
O   14.002787   12.767398    6.273416
O   11.844814   13.349046    7.788103
O   12.196802   13.259300   10.390562
O   14.709763   13.008772    9.791405
O   16.600639   11.099066    9.366761
O   12.016803   10.951415    8.956707
O   18.764818    7.466503   12.208107
O   18.434654   10.117448   12.472154
O   18.092880   12.765607   12.563158
O   14.187789    7.381136   11.634645
O   13.862832    9.800058   12.453685
O   13.932509   12.447422   12.287869
O    9.842215    9.445458    9.531641
O    9.907887   12.517068    9.440234
O   12.775037   18.816692    3.679656
O   13.591133   18.822065    1.257734
O   16.096085   18.991207   13.471597
O   18.358772   18.402197    1.339638
O   17.954329   18.903254    3.925903
O   15.429152   18.813908    3.174849
O   12.432461    3.149017    3.086789
O   13.840406    2.901871    0.927710
O   16.208410    2.809341   12.885421
O   18.102291    3.477947    1.255459
O   17.679226    2.904657    3.840386
O   15.100992    3.483519    3.247787
O   14.094486    1.100415    2.843085
O   18.266670    0.989975    2.100328
O   11.419147   17.334417    5.355475
O   11.666018    0.072233    5.852520
O   12.438467    2.654726    5.703567
O   16.266672   17.169455    5.018358
O   16.180979   19.741598    5.614570
O   15.765122    2.487972    5.610823
O    0.266293   19.320337    3.013183
O    0.100711    2.742679    2.849375
O   17.201099    1.174638   10.395112
O   16.363180    1.236325    7.865859
O   14.027813    0.754371    6.690563
O   11.842812    1.497798    8.023108
O   12.075869    1.149963   10.629448
O   14.591433    1.088276    9.782036
O   17.422342   16.649693    9.872640
O   16.186184   16.849480    7.630184
O   13.865234   17.153536    6.282114
O   11.759321   16.493286    7.848728
O   12.160562   16.595369   10.446771
O   14.689741   16.746599    9.784579
O   16.110102   18.901264    9.366226
O   11.929908   18.913601    9.028975
O   18.688934    2.573140   12.123794
O   18.356770   19.916512   12.549106
O   17.852215   17.318895   12.380346
O   13.678430    2.988034   11.459729
O   14.021406    0.493893   12.304732
O   13.855624   17.425356   12.294829
O    9.816786    0.672387    9.549975
O    9.840612   17.407446    9.454153
O    7.086787    9.375813    9.371848
O    4.995689    8.799338   11.954900
O    3.849630    9.029768    0.738340
O    2.082488    8.537666   12.016730
O    2.100107    9.127472    9.368770
O    4.673935    9.702752    9.705486
O    7.263181   13.430631   10.199318
O    6.166375   13.346856   12.471351
O    3.910296   12.692975    0.413936
O    1.830011   13.429636   12.263914
O    2.169384   13.099511    9.613544
O    4.675737   13.005986   10.298352
O    6.339566   11.057278   11.209601
O    1.674240   11.010514   11.282538
O    8.598047    7.547890    7.952446
O    8.511553   10.120432    7.360383
O    7.768335   12.757648    7.450182
O    3.842622    7.381932    8.518280
O    3.662624    9.703151    7.283965
O    3.930719   12.351110    7.763478
O   19.908674    9.126876   10.540585
O   19.845606   12.775356   10.550890
O    2.932622   10.941863    2.849375
O    3.840019   11.351981    5.294315
O    5.994987   10.861670    6.851293
O    8.007999   11.517740    5.181095
O    7.996587   10.775308    2.587469
O    5.529075   10.759191    3.411862
O    2.832712    6.554133    3.342271
O    3.686050    6.797299    5.869115
O    6.084285    7.134985    7.092321
O    8.176384    6.469165    5.529588
O    7.849024    6.950323    2.925122
O    5.423359    6.624974    3.921888
O    3.913500    8.858040    4.189682
O    8.259475    8.953157    4.597997
O    1.412552   12.435084    1.329200
O    1.415756    9.852194    0.826534
O    1.921712    7.212990    0.845940
O    6.264483   12.605419    1.672340
O    6.177788   10.108294    0.819307
O    5.672032    7.539930    1.433185
O   10.184190   10.618505    3.853635
O   10.236648    7.210004    4.012625
O    9.006896   15.021158    8.696675
O    3.830609   14.857390    8.534340
O    5.333260   14.918678    0.928379
O    2.417056   14.820178    1.072380
O    1.087195    5.049371    1.931167
O    6.336963    5.038029    1.926483
O    4.587040    5.054346    7.695359
O    7.686045    5.054346    7.689336
O   11.585529    4.993455    4.765151
O   16.429052    4.959826    4.999086
O   14.851519    5.191649   12.794817
O   17.695444    5.056734   12.554860
O   18.855516   15.074886   11.543240
O   13.930306   14.917286   11.541767
O   15.350667   14.987131    5.949145
O   12.424651   14.918878    5.780921
O    8.920602    2.478420   12.296836
O    9.590939    8.547019   14.385522
O   11.273787    4.152325   12.544154
O   11.590335    6.958879   12.881004
Pt    7.119622    5.002608   -3.445454
Pt    9.239152    7.182544   -0.716258
Pt    8.885763    6.836501   -3.168961
Pt    6.501744    5.019722   -1.061272
Pt    6.884965    7.754640   -1.346731
Pt    8.985873    4.685020   -1.173421
H    7.961948    2.256348   12.265387
H    9.289807    2.120437   11.466020
H    8.932415    9.268158   14.469566
H   10.469104    8.968480   14.346845
H   11.849420    3.736833   11.858141
H   11.271785    3.530680   13.295074
H   11.711468    7.179360   11.936699
H   11.679833    5.981441   12.914595
H   16.192791    1.850209   13.098745
H    5.940928    3.599132   17.956240
H    3.805582   17.698967   14.885108
H    9.829400   15.024940    8.158678
H   17.454378   13.055734   18.774342
H   12.838506   18.198233   14.659471
