290
Pt2@Silicalite-1
Si    8.447682    1.114145    8.746861
Si    6.059057    0.606124   10.774654
Si    5.621777    1.176230    0.312359
Si    2.408847    1.293236    0.185087
Si    1.350284    0.477775   10.821761
Si    3.607764    1.203491    8.983607
Si    8.509550   16.485128    8.987488
Si    6.149157   17.283674   10.926283
Si    5.445183   16.498857    0.488479
Si    2.409848   16.438364    0.420494
Si    1.431773   17.228355   10.948097
Si    3.735905   16.378269    9.061361
Si    1.578134   18.783064    2.061116
Si    3.974567   19.285116    4.079406
Si    4.393828   18.693916    7.038655
Si    7.605958   18.595018    6.889970
Si    8.648903   19.428787    4.134812
Si    6.427262   18.679789    2.255437
Si    1.559113    3.420041    2.285549
Si    3.884468    2.601794    4.282962
Si    4.571423    3.397555    7.205943
Si    7.621775    3.460635    7.063280
Si    8.566212    2.647960    4.200388
Si    6.258677    3.462028    2.372003
Si   11.580324   11.035587    4.663173
Si   13.962742   10.561593    2.631098
Si   14.405628   11.133093   13.101824
Si   17.630373   11.239752   13.217854
Si   18.670715   10.444985    2.616243
Si   16.393412   11.162344    4.426293
Si   11.495431    6.556323    4.384405
Si   13.869840    7.340940    2.455245
Si   14.556994    6.556522   12.904022
Si   17.615355    6.498019   12.967860
Si   18.629669    7.300147    2.435305
Si   16.304714    6.491651    4.317891
Si   18.450274    8.839931   11.302613
Si   16.016197    9.347555    9.326747
Si   15.603745    8.766902    6.379944
Si   12.398023    8.631390    6.546563
Si   11.364887    9.469735    9.271475
Si   13.555294    8.758147   11.161690
Si   18.492119   13.374516   11.108960
Si   16.162560   12.562836    9.153035
Si   15.460187   13.342279    6.232062
Si   12.412239   13.401977    6.276895
Si   11.436966   12.584327    9.123191
Si   13.731888   13.417100   11.025452
Si   11.584329   18.803759    4.649522
Si   13.979560   19.293871    2.621864
Si   14.408031   18.738291   13.063013
Si   17.616957   18.603575   13.188545
Si   18.669714   19.415653    2.559901
Si   16.423244   18.683968    4.418398
Si   11.504641    3.421235    4.392301
Si   13.900874    2.614729    2.456182
Si   14.555793    3.402132   12.908172
Si   17.610350    3.458844   12.969465
Si   18.617256    2.655720    2.431022
Si   16.314926    3.464615    4.307051
Si   18.445868    1.115936   11.324025
Si   16.046030    0.610302    9.315237
Si   15.619362    1.181006    6.358665
Si   12.405631    1.313931    6.499588
Si   11.388914    0.478173    9.250062
Si   13.597940    1.221799   11.143489
Si   18.477503   16.470005   11.098255
Si   16.135929   17.293028    9.150760
Si   15.447773   16.504230    6.217340
Si   12.411036   16.440754    6.269936
Si   11.461193   17.257607    9.119445
Si   13.730486   16.427422   11.032143
Si    8.474511    9.022406    8.492183
Si    6.245663    9.238111   10.676690
Si    5.388721    8.816252    0.462650
Si    2.275701    8.738049    0.205295
Si    1.348081    9.467546   10.790713
Si    3.682446    8.749192    8.983473
Si    8.460896   13.343872    8.985079
Si    6.168377   12.442248   10.988782
Si    5.454994   13.357801    0.474294
Si    2.412451   13.400186    0.411126
Si    1.443987   12.605419   10.929629
Si    3.773947   13.319993    9.072738
Si    1.503652   11.062650    2.083198
Si    3.984178   10.500106    4.034841
Si    4.493737   11.086131    6.968261
Si    7.689649   11.298255    6.720140
Si    8.685343   10.487170    4.042603
Si    6.442479   11.185427    2.248076
Si    1.585542    6.517321    2.268419
Si    3.907293    7.274477    4.303170
Si    4.551601    6.555129    7.195370
Si    7.606758    6.524484    6.995562
Si    8.546991    7.367605    4.145251
Si    6.188199    6.476528    2.466353
O    7.193103    1.165087    9.770125
O    6.334160    1.246672   12.236077
O    4.011007    1.156530    0.243303
O    1.907096    1.407257   12.035199
O    2.085091    0.913762    9.446391
O    4.583436    1.068576   10.282159
O    7.488828   16.744612   10.209757
O    6.185797   16.817043   12.468674
O    3.916103   17.087669    0.424241
O    1.837018   16.413691   12.288271
O    2.267892   16.659243    9.686348
O    4.837515   16.665014   10.213638
O    6.092494   18.896688   10.863650
O    1.669634   18.820871   11.205854
O    8.592441    2.574732    8.029532
O    8.265081   19.897608    7.589901
O    8.088888   17.234325    7.612518
O    3.755727    2.729745    8.440927
O    3.925113    0.162973    7.778334
O    3.919507   17.336805    7.774854
O   19.797552    0.741238   10.522518
O   19.923691   16.923103   10.537374
O    2.826906   18.734510    3.087726
O    3.751722   18.646557    5.548592
O    6.007801   18.738291    7.016975
O    8.099099   18.490946    5.348516
O    7.934518   18.983049    2.753151
O    5.424961   18.824654    3.523342
O    2.589645    3.164339    3.505677
O    3.761933    3.073202    5.832446
O    6.107111    2.822076    7.108380
O    8.173982    3.485310    5.534004
O    7.760727    3.236771    2.926461
O    5.252171    3.155584    3.608191
O    3.918506    0.994353    4.180046
O    8.262078    1.076337    4.510740
O    1.418158   17.330835    1.346464
O    1.752526    0.001592    0.902683
O    1.932323    2.650746    0.915531
O    6.334360   17.167664    1.673946
O    6.086087   19.729858    1.075324
O    6.086087    2.503692    1.092187
O   10.241453   19.232582    3.846676
O   10.106905    2.890330    3.770794
O   12.859730   11.105433    3.677782
O   13.681433   11.200748    1.170076
O   16.018400   11.108418   13.218122
O   18.189186   11.356956    1.352754
O   17.924294   10.858088    3.998038
O   15.446372   11.022852    3.105124
O   12.539178    6.793519    3.178596
O   13.775736    6.868339    0.911115
O   16.097286    7.130608   12.964112
O   18.193991    6.472150    1.102358
O   17.775932    6.721882    3.685143
O   15.186487    6.718500    3.164544
O   13.930707    8.950769    2.519484
O   18.359373    8.890078    2.186782
O   11.422951   12.509308    5.345438
O   11.753514    9.951689    5.861085
O   11.925303    7.291392    5.768341
O   16.274082   12.673873    5.003904
O   16.016798   10.123617    5.609083
O   16.106297    7.453967    5.596637
O    0.196616   10.777099    3.005554
O    0.164180    7.053997    2.841077
O   17.180677    8.784812   10.297014
O   16.265472    8.702230    7.859568
O   13.996778    8.781230    6.451275
O   11.923902    8.471999    8.098990
O   12.018206    9.037728   10.700913
O   14.527562    8.955346    9.866081
O   17.500229   13.099910    9.867688
O   16.258863   13.024293    7.606764
O   13.925701   12.767199    6.276895
O   11.839408   13.430830    7.794393
O   12.264276   13.182490   10.380658
O   14.845312   13.186471    9.863673
O   16.100290   10.953007    9.212724
O   11.767329   11.005938    8.869583
O   18.603041    7.387305   12.032521
O   18.269674    9.951092   12.470547
O   18.094681   12.594674   12.467469
O   13.687639    7.228710   11.703835
O   13.934111    9.766827   12.373253
O   13.931707   12.438666   12.290412
O    9.759123    9.288654    9.454287
O    9.876451   12.760632    9.523878
O   12.834702   18.740879    3.617693
O   13.757115   18.647751    1.159771
O   16.019001   18.742670   13.060069
O   18.107897   18.490351    1.343787
O   17.938311   18.982851    3.938617
O   15.449575   18.830225    3.121451
O   12.611056    3.157175    3.254076
O   13.770731    3.082554    0.913122
O   16.094885    2.820484   12.964247
O   18.190187    3.483320    1.100083
O   17.787144    3.229210    3.693039
O   15.260568    3.229807    3.091205
O   13.932709    1.003109    2.520153
O   18.349762    1.071163    2.174336
O   11.424552   17.335810    5.340219
O   11.757919   -0.015322    5.849442
O   11.853423    2.653333    5.776504
O   16.279287   17.175821    5.002432
O   16.096085   19.729460    5.611358
O   16.106096    2.504687    5.586198
O    0.223245   19.157166    2.858341
O    0.139353    2.894907    2.845627
O   17.196495    1.165484   10.297550
O   16.265871    1.249856    7.845383
O   14.005189    1.167474    6.365490
O   11.928507    1.419993    8.040774
O   12.095089    0.913165   10.638281
O   14.594636    1.071959    9.868490
O   17.456781   16.742821    9.877056
O   16.194193   16.827391    7.611046
O   13.918894   17.083889    6.269668
O   11.843413   16.414684    7.788237
O   12.267879   16.663223   10.384272
O   14.832697   16.662029    9.865546
O   16.097887   18.902657    9.211386
O   11.765327   18.835598    8.865569
O   18.601038    2.569359   12.038277
O   18.274479   19.900593   12.483396
O   18.101290   17.247856   12.463722
O   13.686238    2.738898   11.706646
O   13.935913    0.233614   12.381149
O   13.923098   17.414013   12.288940
O    9.812382    0.743427    9.540339
O    9.913692   17.078318    9.531775
O    7.074373    9.371434    9.209913
O    6.011205    8.553585   12.355855
O    3.827606    9.196124    0.331229
O    1.830411    8.540054   12.043630
O    2.157571    9.040712    9.455090
O    4.696560    8.894455   10.226352
O    7.417350   13.100706   10.191690
O    6.248266   13.105880   12.469075
O    3.923711   12.763816    0.418754
O    1.843626   13.432222   12.271676
O    2.259683   13.099114    9.616488
O    4.767438   12.929376   10.297014
O    6.261880   10.836797   11.130775
O    1.666031   11.017280   11.207326
O    8.580829    7.462523    7.940536
O    8.588838   10.020341    7.203132
O    8.008199   12.609598    7.609708
O    3.760132    7.215178    8.443468
O    4.008004    9.772399    7.770036
O    4.086490   12.430110    7.765352
O   19.789143    9.206272   10.456941
O   19.934103   12.928181   10.540050
O    2.836116   11.021061    3.010238
O    3.747718   11.112995    5.518614
O    6.098701   11.016684    6.769389
O    8.175983   11.529680    5.186716
O    7.991581   10.940072    2.656927
O    5.435572   11.020664    3.516517
O    2.687353    6.646067    3.445186
O    3.674037    6.879084    5.857873
O    6.087088    7.130210    7.026610
O    8.166574    6.484686    5.464279
O    7.741306    6.805259    2.838133
O    5.336463    6.626168    3.850156
O    3.998393    8.876148    4.091585
O    8.256071    8.950172    4.430175
O    1.420561   12.515476    1.348337
O    1.421762    9.928407    0.910981
O    2.011010    7.306316    0.919278
O    6.328153   12.690588    1.670332
O    6.099102   10.114662    1.083755
O    5.588941    7.469885    1.336560
O   10.282699   10.616913    3.777218
O   10.104102    7.132598    3.774943
O    8.594243   14.916689    8.615842
O    3.921909   14.851022    8.542235
O    5.349878   14.928429    0.829345
O    2.418257   14.920072    1.000112
O    1.496845    4.968382    1.838557
O    6.018413    4.982312    1.844445
O    4.662523    4.976143    7.516964
O    7.672029    5.005195    7.604890
O   11.420949    4.986888    4.771173
O   16.179379    4.974949    4.865122
O   14.599241    4.978332   12.561954
O   17.601339    4.977337   12.383825
O   18.442265   14.923852   11.542570
O   13.850218   14.922460   11.623270
O   15.430554   14.923255    5.937636
O   12.429056   14.921663    5.690184
Pt    9.103202    6.101431   -3.086254
Pt    7.455792    7.353079   -1.867464
