295
Pt1H1@H-MFI
Si    8.453889    1.035743    8.761583
Si    6.013207    0.623834   10.752839
Si    5.688851    1.210257    0.269801
Si    2.506354    1.325472    0.156313
Si    1.405945    0.518966   10.831933
Si    3.617575    1.330049    9.019607
Si    8.508749   16.410505    8.981599
Si    6.096699   17.302977   10.869405
Si    5.349878   16.515574    0.441238
Si    2.338770   16.477964    0.431736
Si    1.422763   17.301783   10.977540
Si    3.623782   16.331110    9.075547
Si    1.535087   18.866043    1.999688
Si    3.899685   19.355358    4.003926
Si    7.737101   18.549450    6.881940
Si    8.658514   19.310188    4.039793
Si    6.376006   18.698494    2.217429
Si    1.658623    3.455063    2.270961
Si    3.887671    2.660297    4.284701
Si    4.531178    3.421036    7.193898
Si    7.606758    3.334276    7.101689
Si    8.626879    2.520010    4.273326
Si   11.550290   11.107423    4.631321
Si   13.960739   10.482594    2.675395
Si   14.398221   10.998973   13.069036
Si   17.598537   11.209903   13.199519
Si   18.659903   10.484385    2.614101
Si   16.400620   11.217265    4.458948
Si   11.564707    6.521101    4.331274
Si   13.958737    7.261344    2.439052
Si   14.631476    6.583783   12.911517
Si   18.801458    7.360441    2.445610
Si   16.396616    6.575426    4.241073
Si   18.509939    8.971863   11.185110
Si   16.031214    9.343575    9.285527
Si   15.547684    8.889679    6.320256
Si   12.334352    8.668005    6.466264
Si   11.420749    9.402476    9.258895
Si   13.569910    8.624624   11.101601
Si   18.461285   13.350239   11.106419
Si   16.091480   12.555672    9.150493
Si   15.445971   13.342678    6.191511
Si   12.430659   13.471026    6.241965
Si   13.835602   13.432222   11.118865
Si   11.569511   18.844551    4.590369
Si   13.975956   19.353371    2.621864
Si   14.412436   18.782070   13.066359
Si   17.606546   18.556215   13.239267
Si   18.623062   19.362921    2.616644
Si   16.403223   18.642179    4.468985
Si   11.634784    3.434767    4.486651
Si   13.887859    2.685370    2.376955
Si   14.524559    3.398152   12.895725
Si   17.554287    3.399943   12.910045
Si   18.681526    2.561598    2.319675
Si   18.491318    1.019426   11.353334
Si   16.067055    0.551003    9.345616
Si   15.635980    1.090465    6.405372
Si   12.437667    1.289057    6.549239
Si   11.323041    0.418476    9.303995
Si   13.604348    1.255229   11.124753
Si   18.492319   16.478163   11.116054
Si   16.165562   17.232534    9.146879
Si   15.442968   16.519156    6.220284
Si   12.426254   16.488111    6.256687
Si   11.447377   17.160698    9.155979
Si   13.810174   16.414684   11.020499
Si    8.537180    8.870577    8.685433
Si    6.078078    9.338799   10.719248
Si    5.521467    8.912563    0.234604
Si    2.361995    8.710191    0.156447
Si    1.390528    9.534408   10.791115
Si    3.639799    8.667408    8.924855
Si    8.437470   13.293327    9.041019
Si    6.035231   12.558856   10.984900
Si    5.357487   13.343673    0.523811
Si    2.339370   13.436999    0.371914
Si    1.401540   12.594276   10.933911
Si    3.704070   13.337106    9.080232
Si    1.523874   11.101054    2.058439
Si    3.900686   10.526969    4.040596
Si    4.465507   11.043149    6.982313
Si    7.660617   11.192192    6.816631
Si    8.658714   10.509060    4.051837
Si    6.369799   11.160752    2.245400
Si    1.651615    6.527071    2.245400
Si    3.908094    7.358849    4.243616
Si    4.543793    6.602887    7.127385
Si    8.648302    7.384718    4.038321
Si    6.253071    6.691039    2.385520
O    7.091592    1.078526    9.622645
O    6.426061    1.238912   12.188970
O    4.078882    0.989975    0.077220
O    1.842625    1.497599   12.058217
O    2.083890    1.002512    9.449737
O    4.526974    1.158719   10.372227
O    7.413145   16.751972   10.127050
O    6.091293   16.749586   12.389580
O    3.835214   17.150551    0.418486
O    1.823003   16.421650   12.275691
O    2.162776   16.585617    9.699864
O    4.755225   16.747993   10.115139
O    6.007601   18.902458   10.793791
O    1.835417   18.864252   11.194880
O    8.595845    2.558216    8.121072
O    8.425858   19.901985    7.514287
O    8.345570   17.238304    7.609574
O    3.759931    2.889335    8.524837
O    4.018215    0.330323    7.852877
O    3.672235   17.324268    7.690675
O   19.840200    0.657662   10.536571
O   19.869032   17.176022   10.629180
O    2.840121   18.738689    2.931680
O    3.677841   18.665262    5.437647
O    6.164774   18.572931    7.098076
O    8.254270   18.421698    5.337676
O    7.927711   18.816893    2.687574
O    5.423159   18.993994    3.505409
O    2.595252    3.403127    3.587313
O    3.690455    2.984054    5.878215
O    6.083885    2.815510    7.114269
O    8.181390    3.323730    5.595031
O    8.007999    3.311393    2.939308
O    5.329056    3.145037    3.776281
O    3.672635    1.067581    4.014499
O    8.186996    0.974852    4.348806
O    1.331863   17.394909    1.321839
O    1.674039    0.094321    0.837910
O    2.331562    2.716611    0.993554
O    6.174785   17.173037    1.670198
O    6.172983   19.733242    0.999978
O    6.083485    2.552246    1.008141
O   10.247059   19.161345    3.693976
O   10.249661    2.649353    3.999644
O   12.854925   11.108218    3.671091
O   13.764123   11.101453    1.174760
O   16.014595   10.938282   13.059132
O   18.101688   11.361334    1.344724
O   17.919489   10.860277    4.011420
O   15.439964   10.942261    3.173779
O   12.776839    6.478916    3.250865
O   13.761520    6.959476    0.860661
O   16.110502    7.222143   12.967994
O   18.595833    6.549756    1.080410
O   17.926897    6.787549    3.695849
O   15.421344    6.728847    2.924721
O   13.844412    8.867790    2.685701
O   18.436657    8.939626    2.182634
O   11.431961   12.595868    5.278657
O   11.605551    9.952286    5.781054
O   12.010797    7.289402    5.682154
O   16.339153   12.772372    4.945420
O   15.941916   10.364792    5.762586
O   16.096687    7.725389    5.354672
O    0.183402   10.861073    2.935160
O    0.342977    7.220353    2.923784
O   17.257162    8.781827   10.213237
O   16.263269    8.777449    7.786364
O   13.939116    8.872368    6.446725
O   11.765727    8.458070    7.963153
O   12.036224    8.718548   10.609373
O   14.599442    8.872766    9.859792
O   17.346659   13.195227    9.944640
O   16.188187   13.010166    7.610109
O   13.925901   12.763218    6.182812
O   11.930510   13.511222    7.758526
O   12.245655   13.350438   10.543530
O   14.680931   13.106476    9.788862
O   16.106096   10.957185    9.363817
O   12.011197   10.881769    9.034195
O   18.775829    7.393474   11.803003
O   18.351963    9.948505   12.463856
O   17.944117   12.609997   12.459038
O   13.772933    7.119663   11.636518
O   13.844011    9.699369   12.297237
O   13.935712   12.360861   12.299513
O    9.821392    9.373026    9.539938
O    9.850022   12.836248    9.622511
O   12.846715   18.742073    3.603507
O   13.763923   18.656904    1.165526
O   16.021004   18.823458   13.139564
O   18.103291   18.408764    1.401468
O   17.940311   18.906437    4.011287
O   15.442167   18.921362    3.180336
O   12.599844    3.310796    3.190373
O   13.603547    3.066038    0.823188
O   16.032415    2.737505   12.962373
O   18.106895    3.399545    1.086700
O   17.956730    3.314377    3.687819
O   15.274983    3.309204    2.862356
O   13.846214    1.064597    2.523499
O   18.192791    1.016839    2.263467
O   11.430360   17.414610    5.355609
O   11.677431    0.152625    5.680816
O   12.182185    2.746858    5.847301
O   16.264271   17.088465    4.936052
O   16.092682   19.560320    5.764728
O   16.090879    2.323805    5.517276
O    0.198618   19.235765    2.851516
O    0.231655    2.725964    2.668838
O   17.259764    1.068576   10.305044
O   16.349564    1.159913    7.872015
O   14.016200    0.992960    6.611470
O   11.761724    1.333432    8.027123
O   12.098693    0.914558   10.632125
O   14.612255    1.071362    9.864208
O   17.498426   16.662029    9.860595
O   16.268475   16.838932    7.587492
O   13.931107   17.160698    6.276628
O   11.846617   16.416676    7.777129
O   12.334553   16.569101   10.384540
O   14.857124   16.503832    9.788058
O   16.018600   18.824057    9.370375
O   11.677831   18.762568    8.954298
O   18.597034    2.480012   12.049518
O   18.356369   19.813633   12.546964
O   17.933905   17.162689   12.473625
O   13.686038    2.802376   11.625946
O   13.931107    0.263662   12.375394
O   13.939316   17.491817   12.209177
O    9.748111    0.668606    9.682066
O    9.937119   16.829977    9.630005
O    7.259376    8.958331    9.699864
O    6.331156    8.710588   12.208776
O    3.916303    9.122498   -0.011777
O    1.665830    8.534880   12.053400
O    2.168182    9.113145    9.454020
O    4.665727    8.716359   10.190619
O    7.332257   13.103492   10.212701
O    6.175786   13.008772   12.542013
O    3.829207   12.766005    0.413802
O    1.826607   13.512218   12.205029
O    2.177793   13.098516    9.597486
O    4.678340   13.258704   10.378383
O    5.913097   10.955195   10.795932
O    1.756330   11.037378   11.290167
O    8.674731    7.376559    8.108358
O    8.417048    9.869308    7.377513
O    8.006798   12.511098    7.683983
O    3.598354    7.143343    8.361297
O    3.929918    9.694196    7.697367
O    4.085689   12.354295    7.866260
O   19.841600    9.371434   10.369283
O   19.844004   12.688000   10.552763
O    2.835315   11.201943    3.010640
O    3.754325   11.196173    5.521290
O    6.065064   10.938282    6.856513
O    8.104706   11.443517    5.271698
O    7.917099   10.947236    2.671649
O    5.421757   10.772324    3.512904
O    2.842523    6.542791    3.334642
O    3.675238    6.878886    5.771018
O    5.999592    7.290794    7.102894
O    8.182991    6.469364    5.275712
O    7.840214    6.979972    2.673923
O    5.429165    7.052404    3.766645
O    3.581135    8.945596    4.097072
O    8.348372    8.954947    4.426829
O    1.336468   12.512690    1.254121
O    1.588946    9.867715    0.994223
O    2.093100    7.274279    0.854505
O    6.093695   12.710685    1.828252
O    6.085287   10.275645    0.915130
O    5.681843    7.630073    1.178507
O   10.233844   10.781079    3.748846
O   10.249062    7.211995    3.678451
O    8.427259   14.854205    8.603395
O    3.823000   14.852813    8.451766
O    5.262182   14.934796    0.752258
O    2.334165   14.944149    0.997301
O    1.332664    4.980919    1.838958
O    6.011405    5.199011    1.915643
O    4.744613    5.004797    7.353022
O    7.755722    4.954055    7.614258
O   11.258570    4.974352    4.772512
O   16.193192    5.142101    4.932305
O   14.682132    4.978929   12.715858
O   17.604744    4.877643   12.310621
O   18.693138   14.911316   11.463343
O   14.012197   14.928827   11.709322
O   15.354872   14.933005    6.019941
O   12.498934   14.994295    5.617247
Al    4.491335   18.872013    6.949658
Al    6.243260    3.572866    2.369059
Al   17.650993    6.441107   13.026209
Al   11.439169   12.505328    9.048916
Al   16.180378    3.538042    4.315349
Al    7.625378    6.728250    6.884081
H    8.264280    5.047183    8.447082
H   19.725874    7.243833   12.012046
H   11.549690   13.746826   11.104545
H    8.937820    4.174213    0.616153
H   18.624264    3.716138    4.278010
H    3.127436   16.967480    6.956350
Pt    9.673429    3.593362    1.824371
