292
Pt4@Silicalite-1
Si    8.445880    1.119518    8.746728
Si    6.059057    0.607118   10.774921
Si    5.621977    1.177225    0.314367
Si    2.408847    1.293236    0.185622
Si    1.352086    0.477775   10.821226
Si    3.608765    1.204885    8.982670
Si    8.508549   16.486719    8.987086
Si    6.148556   17.284472   10.926551
Si    5.445183   16.498659    0.488747
Si    2.410248   16.438166    0.420628
Si    1.432975   17.228355   10.948097
Si    3.736506   16.378269    9.060693
Si    1.579135   18.782665    2.061250
Si    3.974567   19.285713    4.080209
Si    4.394228   18.694315    7.038789
Si    7.606358   18.597010    6.891040
Si    8.648103   19.429981    4.135615
Si    6.427463   18.679588    2.256374
Si    1.560915    3.421036    2.286352
Si    3.884668    2.602391    4.286441
Si    4.575227    3.399545    7.206746
Si    7.623776    3.466207    7.067830
Si    8.565011    2.650348    4.203600
Si    6.258677    3.463620    2.376553
Si   11.575919   11.035986    4.660764
Si   13.961540   10.560598    2.633641
Si   14.409833   11.142245   13.107845
Si   17.634577   11.240149   13.218523
Si   18.674519   10.444387    2.616778
Si   16.394613   11.162743    4.425223
Si   11.487622    6.553935    4.382130
Si   13.864835    7.340343    2.458591
Si   14.559998    6.551746   12.911785
Si   17.617958    6.497421   12.968127
Si   18.632072    7.300346    2.436108
Si   16.304714    6.490258    4.316152
Si   18.457081    8.840927   11.301409
Si   16.025007    9.350939    9.322464
Si   15.604945    8.766305    6.376330
Si   12.400024    8.628206    6.534384
Si   11.358280    9.479685    9.233869
Si   13.583526    8.763321   11.167712
Si   18.495123   13.375510   11.109228
Si   16.164360   12.566418    9.152634
Si   15.459787   13.343274    6.231125
Si   12.412438   13.402972    6.274352
Si   11.432161   12.594476    9.123191
Si   13.732489   13.420682   11.024782
Si   11.583327   18.804953    4.649923
Si   13.979159   19.293472    2.622399
Si   14.408031   18.739487   13.063013
Si   17.617157   18.603775   13.188680
Si   18.670515   19.415653    2.559901
Si   16.423445   18.684565    4.418398
Si   11.502038    3.421036    4.393505
Si   13.899873    2.614729    2.458056
Si   14.556594    3.398351   12.907904
Si   17.612152    3.458048   12.970001
Si   18.618858    2.655323    2.431691
Si   16.315126    3.463620    4.307185
Si   18.446869    1.115339   11.323089
Si   16.046030    0.610700    9.315104
Si   15.617961    1.180807    6.359066
Si   12.404230    1.314926    6.501060
Si   11.383307    0.481556    9.250597
Si   13.595940    1.221600   11.141616
Si   18.478502   16.470800   11.098255
Si   16.136530   17.293625    9.150760
Si   15.447773   16.505226    6.217206
Si   12.410236   16.442345    6.270337
Si   11.459991   17.260792    9.118909
Si   13.729886   16.430008   11.031340
Si    8.466502    8.979026    8.517476
Si    6.285706    9.254030   10.751769
Si    5.389321    8.817247    0.446858
Si    2.277503    8.738248    0.206366
Si    1.357492    9.465954   10.788171
Si    3.710477    8.748198    8.996989
Si    8.456291   13.345861    8.982670
Si    6.164573   12.458963   10.990387
Si    5.454994   13.358199    0.477505
Si    2.413051   13.399787    0.411393
Si    1.446189   12.605021   10.929495
Si    3.772745   13.320192    9.069526
Si    1.507056   11.061853    2.082662
Si    3.985780   10.498315    4.035644
Si    4.493938   11.082747    6.969867
Si    7.692452   11.289300    6.733255
Si    8.681338   10.483391    4.044477
Si    6.442479   11.181049    2.245400
Si    1.589346    6.518116    2.270025
Si    3.913300    7.272686    4.303572
Si    4.556607    6.557915    7.195905
Si    7.617970    6.522494    7.011353
Si    8.543387    7.362033    4.151005
Si    6.197209    6.483293    2.458056
O    7.191502    1.165087    9.771463
O    6.334160    1.248065   12.237950
O    4.011208    1.157127    0.243704
O    1.907296    1.407456   12.035466
O    2.085692    0.913961    9.446123
O    4.583035    1.068775   10.282963
O    7.488228   16.744612   10.210025
O    6.185596   16.817242   12.468807
O    3.916103   17.088066    0.424241
O    1.836818   16.413691   12.288405
O    2.267892   16.659243    9.686214
O    4.837515   16.665215   10.213772
O    6.092094   18.897285   10.864587
O    1.669634   18.820871   11.205988
O    8.592441    2.572742    8.027658
O    8.264681   19.896812    7.593247
O    8.088688   17.234724    7.612117
O    3.755927    2.730342    8.441059
O    3.924913    0.162973    7.778601
O    3.919507   17.337004    7.774854
O   19.798553    0.741238   10.522384
O   19.924091   16.923103   10.537506
O    2.827307   18.734709    3.087993
O    3.751522   18.646557    5.548860
O    6.007801   18.738092    7.016841
O    8.099099   18.491146    5.348917
O    7.934718   18.983250    2.753285
O    5.424961   18.824852    3.523476
O    2.590246    3.163742    3.506212
O    3.761333    3.072804    5.834587
O    6.107911    2.821081    7.108113
O    8.173581    3.485111    5.534540
O    7.761328    3.236373    2.925658
O    5.251971    3.154389    3.608994
O    3.918706    0.994552    4.179645
O    8.262279    1.076735    4.510205
O    1.418158   17.330835    1.346464
O    1.752526    0.001592    0.902817
O    1.932323    2.650945    0.915531
O    6.334560   17.168062    1.673812
O    6.086287   19.730854    1.076261
O    6.086488    2.509264    1.090045
O   10.240851   19.232582    3.846408
O   10.106105    2.889733    3.769456
O   12.858929   11.105433    3.678184
O   13.680832   11.200551    1.171013
O   16.019802   11.108021   13.217854
O   18.189186   11.356758    1.353557
O   17.924696   10.857889    3.997368
O   15.445772   11.022852    3.104990
O   12.535573    6.793320    3.178195
O   13.773334    6.868936    0.910847
O   16.096285    7.130608   12.962641
O   18.193390    6.472548    1.102625
O   17.775732    6.722082    3.684608
O   15.185486    6.718897    3.162938
O   13.930906    8.950372    2.518547
O   18.359373    8.890078    2.186782
O   11.422951   12.509308    5.345304
O   11.753915    9.952683    5.860817
O   11.925903    7.289800    5.765664
O   16.274082   12.673873    5.003770
O   16.017199   10.124213    5.608949
O   16.106697    7.453171    5.595700
O    0.199019   10.777099    3.005822
O    0.164981    7.053599    2.841077
O   17.180677    8.784812   10.298219
O   16.265072    8.701833    7.858632
O   13.998382    8.781827    6.450874
O   11.929708    8.474387    8.092433
O   12.011598    9.033548   10.702251
O   14.526961    8.957535    9.863807
O   17.501429   13.099710    9.868223
O   16.258663   13.024095    7.606362
O   13.925701   12.767199    6.277029
O   11.839809   13.431427    7.793055
O   12.264476   13.182093   10.381327
O   14.845312   13.186072    9.863673
O   16.099289   10.954598    9.213660
O   11.771935   11.011909    8.871724
O   18.602640    7.387504   12.031585
O   18.269274    9.950694   12.469745
O   18.094282   12.594873   12.467201
O   13.683636    7.231098   11.705976
O   13.932909    9.772798   12.374324
O   13.931107   12.439262   12.289475
O    9.767532    9.292037    9.457900
O    9.873649   12.760632    9.524146
O   12.834302   18.740879    3.617960
O   13.757115   18.647949    1.159771
O   16.019001   18.742670   13.060069
O   18.107897   18.490549    1.343787
O   17.938511   18.982851    3.938483
O   15.449374   18.830425    3.121317
O   12.609655    3.157374    3.253407
O   13.769730    3.084345    0.913390
O   16.095284    2.820882   12.964112
O   18.190187    3.483320    1.100484
O   17.786943    3.229210    3.692503
O   15.260366    3.230006    3.090938
O   13.932709    1.003109    2.519484
O   18.349962    1.071163    2.174336
O   11.424552   17.336010    5.339817
O   11.758120   -0.015322    5.849710
O   11.853624    2.652935    5.775836
O   16.279488   17.176022    5.002164
O   16.095886   19.729460    5.611358
O   16.106096    2.504289    5.586332
O    0.223646   19.157166    2.858207
O    0.140354    2.895106    2.845494
O   17.196695    1.165484   10.297684
O   16.266073    1.249856    7.845249
O   14.004588    1.167474    6.365490
O   11.928507    1.419396    8.041577
O   12.094089    0.912767   10.638816
O   14.594636    1.072158    9.868758
O   17.456982   16.742821    9.877056
O   16.194193   16.827190    7.611046
O   13.918894   17.083889    6.269668
O   11.843614   16.414885    7.788773
O   12.267679   16.663424   10.383469
O   14.833298   16.661831    9.865546
O   16.097887   18.902857    9.211386
O   11.765127   18.837786    8.866104
O   18.601038    2.569160   12.038009
O   18.274479   19.900791   12.483128
O   18.101290   17.247856   12.463722
O   13.685637    2.738898   11.707181
O   13.935913    0.234609   12.380881
O   13.923298   17.414412   12.289207
O    9.807576    0.741238    9.542079
O    9.913692   17.078318    9.531908
O    7.085385    9.282087    9.278166
O    5.932719    8.531696   12.316108
O    3.824802    9.197716    0.334441
O    1.830411    8.539457   12.044700
O    2.171386    9.039718    9.457097
O    4.756426    8.877939   10.210694
O    7.418151   13.104089   10.191958
O    6.247665   13.113044   12.472019
O    3.923711   12.764014    0.419156
O    1.843225   13.432222   12.271810
O    2.259082   13.099314    9.615953
O    4.764034   12.933952   10.295944
O    6.257075   10.861869   11.131712
O    1.666031   11.017280   11.207594
O    8.584232    7.458145    7.940536
O    8.584433   10.030888    7.270851
O    8.007399   12.613180    7.608503
O    3.760732    7.215377    8.443736
O    4.007403    9.772598    7.772311
O    4.086690   12.430110    7.764014
O   19.794350    9.206272   10.456139
O   19.934704   12.927784   10.540050
O    2.836917   11.021061    3.010907
O    3.748519   11.112796    5.518882
O    6.099702   11.015291    6.771129
O    8.177986   11.523312    5.195682
O    7.990980   10.941266    2.659604
O    5.435973   11.020465    3.515179
O    2.688354    6.646664    3.446658
O    3.675238    6.878886    5.857605
O    6.089891    7.129215    7.026878
O    8.167374    6.483890    5.470837
O    7.744109    6.804861    2.840810
O    5.339266    6.625770    3.844936
O    3.998193    8.875551    4.091451
O    8.256071    8.948780    4.432048
O    1.420561   12.515277    1.348337
O    1.420361    9.928208    0.911115
O    2.010009    7.305719    0.919011
O    6.328753   12.688995    1.670868
O    6.100503   10.112672    1.079607
O    5.585137    7.474661    1.333482
O   10.280496   10.617112    3.776683
O   10.102099    7.133394    3.775077
O    8.595244   14.918081    8.615842
O    3.921509   14.851619    8.541164
O    5.349077   14.929027    0.830817
O    2.418057   14.920072    1.000112
O    1.496845    4.968581    1.838690
O    6.011405    4.980919    1.846453
O    4.661522    4.976740    7.517365
O    7.667624    5.001812    7.607299
O   11.421550    4.985893    4.770504
O   16.179379    4.974750    4.864587
O   14.597038    4.977934   12.561419
O   17.600538    4.977337   12.383960
O   18.441862   14.924051   11.542704
O   13.850418   14.923654   11.623270
O   15.430554   14.923654    5.937636
O   12.429056   14.922260    5.690050
Pt   10.440472    8.327134   11.152590
Pt    7.939924    8.889281   11.746527
Pt    9.819790    9.270945   13.320501
Pt    9.865640   10.400013   11.641604
