330
Pt6H2@H-MFI-10W_FS
Si    8.431664    1.061214    8.759843
Si    6.042439    0.616471   10.834208
Si    5.599152    1.196925    0.378471
Si    2.440281    1.279307    0.180001
Si    1.413954    0.538865   10.820825
Si    3.661423    1.329253    9.039949
Si    8.610661   16.459856    9.055340
Si    6.159167   17.295017   10.915577
Si    5.418353   16.493286    0.471483
Si    2.381617   16.469805    0.442843
Si    1.396134   17.352526   11.017823
Si    3.628387   16.368519    9.143801
Si    1.533685   18.834602    2.050543
Si    3.912699   19.380831    4.073652
Si    7.695255   18.513830    6.936944
Si    8.626078   19.371876    4.155020
Si    6.386217   18.706255    2.221578
Si    1.627789    3.410092    2.327705
Si    3.904089    2.697906    4.385342
Si    4.538386    3.406510    7.272992
Si    7.573321    3.471978    7.219594
Si    8.644898    2.615922    4.382264
Si   11.593739   10.936491    4.620080
Si   14.166766   10.500902    2.723441
Si   14.473102   11.089712   13.121095
Si   17.679426   11.237363   13.244084
Si   18.727777   10.532540    2.684897
Si   16.461687   11.345613    4.517967
Si   11.768531    6.581396    4.497759
Si   14.255864    7.363426    2.577164
Si   14.880350    6.665170   13.092857
Si   18.927797    7.398846    2.709924
Si   16.535168    6.529857    4.447171
Si   18.562395    8.960320   11.311713
Si   16.188988    9.486252    9.351907
Si   15.619362    8.920523    6.420628
Si   12.450480    8.657061    6.623381
Si   11.483417    9.403471    9.399149
Si   13.756716    8.743222   11.146566
Si   18.492517   13.460878   11.129169
Si   16.147743   12.667106    9.245378
Si   15.452378   13.412921    6.281044
Si   12.419847   13.374317    6.221221
Si   13.790954   13.439983   11.144827
Si   11.536877   18.794008    4.644838
Si   13.957736   19.298647    2.650369
Si   14.398821   18.857088   13.102359
Si   17.537870   18.613724   13.226018
Si   18.613653   19.346006    2.558696
Si   16.401020   18.623075    4.415319
Si   11.729688    3.392978    4.556109
Si   13.939716    2.626668    2.471706
Si   14.653300    3.455262   12.982180
Si   17.702650    3.444119   12.992484
Si   18.683329    2.514438    2.407468
Si   18.520950    1.040519   11.383714
Si   16.054640    0.550406    9.433142
Si   15.558695    0.989776    6.486205
Si   12.465697    1.195333    6.574265
Si   11.376101    0.475586    9.350167
Si   13.608552    1.341193   11.195817
Si   18.454077   16.548407   11.113645
Si   16.160757   17.268551    9.154240
Si   15.417140   16.589001    6.233132
Si   12.391816   16.438963    6.310486
Si   11.507243   17.212437    9.245512
Si   13.859828   16.430206   11.034685
Si    8.586034    9.170653    8.636184
Si    6.119925    9.340392   10.570027
Si    5.335863    8.918931    0.374456
Si    2.241262    8.693873    0.250664
Si    1.465410    9.557092   10.770505
Si    3.592347    8.754765    8.696407
Si    8.375603   13.325167    8.992171
Si    6.047245   12.523635   11.002700
Si    5.386118   13.329345    0.489952
Si    2.362195   13.429238    0.259229
Si    1.380717   12.637856   10.812261
Si    3.741311   13.340091    9.041689
Si    1.519269   11.098269    1.999286
Si    3.911698   10.489161    3.958156
Si    4.481724   11.109612    6.849554
Si    7.650806   11.309795    6.748779
Si    8.647302   10.489559    4.038321
Si    6.379810   11.115382    2.156670
Si    1.667632    6.510157    2.232954
Si    3.964556    7.349298    4.138157
Si    4.481524    6.581196    7.025808
Si    8.718780    7.368998    4.251244
Si    6.438074    6.716709    2.399304
O    7.246762    1.086286    9.864877
O    6.348776    1.324080   12.283319
O    4.011007    0.916150    0.157250
O    1.842424    1.498594   12.061696
O    2.111921    0.996940    9.441707
O    4.574026    1.087679   10.381461
O    7.491031   16.750181   10.195839
O    6.173783   16.749586   12.438026
O    3.895280   17.093241    0.417683
O    1.752325   16.495476   12.331097
O    2.162376   16.586016    9.786185
O    4.830107   16.756948   10.121563
O    6.090492   18.901663   10.886401
O    1.845828   18.899872   11.200233
O    8.590439    2.574533    8.182901
O    8.182190   19.971235    7.516830
O    8.511352   17.329842    7.694556
O    3.756928    2.898289    8.616778
O    4.172184    0.397184    7.856491
O    3.587942   17.404461    7.785694
O   19.845205    0.665224   10.533224
O   19.827986   17.323671   10.711084
O    2.753025   18.819281    3.088261
O    3.753324   18.671829    5.502019
O    6.140747   18.317429    7.197378
O    8.097697   18.410954    5.356278
O    7.902283   18.977278    2.751143
O    5.359488   18.984045    3.429929
O    2.593850    3.322735    3.605916
O    3.672035    2.904259    5.990365
O    6.074275    2.811728    7.277676
O    8.094093    3.401734    5.687775
O    8.011803    3.227618    3.021212
O    5.263584    3.397356    3.920550
O    3.839819    1.093251    4.093592
O    8.337562    1.008879    4.585953
O    1.415355   17.330637    1.423550
O    1.665830    0.004577    0.833092
O    2.177593    2.654925    1.000647
O    6.261680   17.170250    1.680102
O    6.181592   19.662203    0.922223
O    5.921306    2.474441    1.252381
O   10.192199   19.071798    3.766378
O   10.268884    2.741087    4.343319
O   12.850720   10.768146    3.606183
O   13.847615   11.108617    1.233645
O   16.082672   11.029419   13.052441
O   18.108696   11.364319    1.410702
O   17.953327   11.016484    4.016774
O   15.431755   11.356160    3.262106
O   12.926804    7.032704    3.432070
O   13.937914    6.970222    1.013628
O   16.347963    7.281044   13.299356
O   18.684330    6.474139    1.419803
O   18.083469    6.891621    4.018513
O   15.584723    6.556124    3.093347
O   14.660308    8.952361    2.678741
O   18.523754    8.953953    2.353267
O   11.530670   12.458764    5.193943
O   11.677431    9.868711    5.852654
O   12.254866    7.212790    5.928401
O   16.434258   12.852764    5.115920
O   16.094284   10.285793    5.687508
O   15.944719    7.622312    5.520220
O    0.249674   10.946241    3.005286
O    0.506156    7.289203    3.094551
O   17.267374    8.786801   10.370621
O   16.421242    8.871770    7.864788
O   14.028614    9.040315    6.696854
O   11.845416    8.457672    8.114782
O   12.193798    8.636365   10.693018
O   14.676326    9.194134    9.874781
O   17.274179   13.510824   10.047823
O   16.183582   13.094537    7.701783
O   13.959538   12.766005    6.187764
O   11.846016   13.348051    7.704192
O   12.188592   13.364964   10.551693
O   14.672722   13.018921    9.867955
O   16.445671   11.089911    9.449335
O   12.097492   10.875002    9.211519
O   18.856920    7.403025   11.968952
O   18.359173    9.874481   12.623650
O   18.103092   12.600047   12.462518
O   14.255664    7.299948   11.707582
O   13.847415    9.791303   12.383558
O   13.928905   12.435680   12.384093
O    9.870445    9.458194    9.615150
O    9.747710   12.683025    9.528028
O   12.841310   18.737495    3.678719
O   13.678430   18.656109    1.168336
O   15.990970   19.064238   13.299891
O   18.113302   18.391054    1.342315
O   17.929100   18.899473    3.947316
O   15.442968   18.821470    3.109272
O   12.587430    3.159563    3.193050
O   13.775937    2.992810    0.887025
O   16.170568    2.824862   12.961971
O   18.186382    3.409097    1.181050
O   17.948921    3.135088    3.840118
O   15.276786    3.314377    3.018000
O   13.934310    1.007884    2.666697
O   18.186583    0.993955    2.185578
O   11.418746   17.335611    5.362167
O   11.600947    0.079198    5.762720
O   12.433062    2.654328    5.847702
O   16.258863   17.087072    4.934446
O   16.100090   19.572855    5.687508
O   15.777135    2.335347    5.678541
O    0.173991   19.230394    2.845627
O    0.226849    2.654129    2.765463
O   17.258963    1.080118   10.375037
O   16.345760    1.069173    7.929160
O   13.983765    0.667014    6.777285
O   11.762324    1.332039    8.032878
O   12.086081    1.073551   10.695560
O   14.624069    1.148371    9.946648
O   17.521852   16.659641    9.788996
O   16.257263   17.015238    7.562734
O   13.878449   17.156122    6.280776
O   11.847017   16.427422    7.858364
O   12.349969   16.502838   10.459885
O   14.867135   16.489107    9.771062
O   15.942718   18.826843    9.538867
O   11.841411   18.811918    9.121050
O   18.686533    2.481007   12.120448
O   18.367182   19.816420   12.545627
O   17.687035   17.237707   12.378071
O   13.764924    2.892121   11.709188
O   13.848817    0.337885   12.453953
O   14.103095   17.577583   12.139452
O    9.759323    0.586424    9.619165
O   10.005593   16.913355    9.777888
O    7.239555    9.634499    9.375194
O    5.434371    8.693475   12.153772
O    3.754325    9.037529    0.742623
O    1.926517    8.625818   12.030515
O    2.153566    9.124089    9.384695
O    4.755024    8.887093    9.780699
O    7.271790   13.184680   10.185400
O    6.256875   13.023498   12.543753
O    3.856037   12.770382    0.252002
O    1.755529   13.526147   12.124463
O    2.173989   13.095929    9.461782
O    4.663925   13.176322   10.372227
O    5.922708   10.926540   11.041912
O    1.751925   11.099861   11.203043
O    8.591440    7.613756    8.120270
O    8.678535   10.186696    7.346598
O    7.767735   12.686408    7.608369
O    3.499645    7.220353    8.180894
O    3.754325    9.786726    7.442554
O    4.172585   12.428518    7.777531
O   19.868031    9.362679   10.461759
O   19.810368   12.774960   10.456139
O    2.903390   11.118169    2.843754
O    3.842622   11.352380    5.351193
O    6.083885   10.856098    6.772601
O    8.094294   11.524704    5.184440
O    7.927310   10.859680    2.600049
O    5.425361   10.598606    3.360739
O    3.080985    6.556720    3.018402
O    3.677040    6.715913    5.597841
O    5.922708    7.288606    7.027146
O    8.191801    6.474737    5.455179
O    8.006197    6.880676    2.840274
O    5.516861    7.130409    3.690496
O    3.516864    8.928881    4.181385
O    8.346371    8.957734    4.505387
O    1.398737   12.503338    1.176767
O    1.336468    9.870899    0.921687
O    1.827608    7.209806    0.758816
O    6.085887   12.684420    1.823166
O    6.102505   10.299126    0.762697
O    6.017011    7.711260    1.181987
O   10.243256   10.692927    3.757277
O   10.345367    7.213984    4.013829
O    8.591240   14.909923    8.623604
O    3.833012   14.901765    8.520823
O    5.339867   14.917882    0.762296
O    2.410849   14.918480    0.919814
O    1.316647    4.950871    1.927821
O    6.179590    5.203987    1.834542
O    4.593647    5.003404    7.367342
O    7.588138    4.980521    7.780609
O   11.678832    4.988082    4.845181
O   16.511141    5.062902    5.101466
O   14.767426    5.059918   12.798565
O   17.846409    4.949479   12.467336
O   18.772026   15.008621   11.544310
O   14.015800   14.937782   11.714140
O   15.347463   14.998274    6.108403
O   12.428455   14.931414    5.692325
O   11.002089    5.395614   15.225573
O   10.177382    2.731337   14.638193
O    9.007697    2.238837   11.967748
O   10.767230    3.485310    9.703612
O    5.910094  -16.843708   12.095422
O    9.251164    8.536671   14.135794
O   11.090185    4.055217   12.626059
O   12.416842    5.549234   10.615797
O   11.340861    6.796901   13.045347
O   11.754716    9.038524   14.633106
Al    4.533381   18.857288    7.022194
Al    6.334560    3.563314    2.552807
Al   17.868834    6.462797   13.300294
Al   11.383508   12.436875    9.071801
Al   16.175173    3.490683    4.478354
Al    7.535079    6.609453    7.055250
H   10.439671    7.067926    9.917473
H   19.414131    6.812223   11.424800
H   11.615562   14.097447   10.861376
H    9.325646    2.975697    1.690005
H   18.603239    3.617638    4.384806
H    2.950842   17.110353    7.101154
H   10.058251    5.600772   15.375194
H   11.050542    4.418573   15.164947
H    8.256672    4.742728   13.043875
H   10.055048    1.776782   14.369729
H    8.051046    2.010794   12.040819
H    9.381108    1.703553   11.235163
H   10.247259    3.619230    8.891532
H   11.450981    4.190531    9.737204
H    4.943832  -16.935640   12.016194
H    6.132538  -17.455603   12.821851
H    9.475411    7.981290   12.139987
H   10.181187    8.880326   14.358754
H   11.690044    3.540828   12.051793
H   10.763627    3.447900   13.381930
H   12.044434    6.304600   10.119020
H   13.373895    5.722156   10.667857
H   11.716073    6.282512   12.283854
H   11.318837    6.148194   13.833606
H   12.083676    9.867914   14.245803
H   12.017605    8.335293   13.997012
Pt    6.974463    4.821130   -2.989628
Pt    9.251765    7.052803   -0.834430
Pt    9.011301    6.453246   -3.362479
Pt    6.627482    5.020518   -0.419691
Pt    6.917601    7.310097   -1.892490
Pt    9.182489    4.395888   -1.773381
