303
Pt6H2@H-MFI-1W_IS
Si    8.444679    1.076735    8.762385
Si    6.062862    0.637763   10.822966
Si    5.604758    1.170857    0.343809
Si    2.443485    1.275924    0.178262
Si    1.415555    0.541054   10.820022
Si    3.667029    1.323085    9.043028
Si    8.607657   16.474382    9.054670
Si    6.158367   17.308548   10.917583
Si    5.423159   16.502241    0.481788
Si    2.380616   16.475777    0.440702
Si    1.397135   17.354914   11.015414
Si    3.630389   16.381653    9.130150
Si    1.537089   18.837587    2.052685
Si    3.940329   19.374065    4.057458
Si    7.700661   18.524775    6.931190
Si    8.637891   19.367498    4.147392
Si    6.418653   18.715010    2.212344
Si    1.623984    3.407306    2.323690
Si    3.917304    2.693728    4.345995
Si    4.536584    3.386611    7.254389
Si    7.605958    3.422230    7.194166
Si    8.647101    2.591845    4.357772
Si   11.606153   10.934501    4.623960
Si   14.147944   10.471053    2.706310
Si   14.444871   11.079564   13.121363
Si   17.658001   11.236965   13.243549
Si   18.727777   10.536122    2.679410
Si   16.464891   11.333277    4.517833
Si   11.744305    6.551746    4.490532
Si   14.202605    7.303729    2.549595
Si   14.851519    6.654425   13.060604
Si   18.913982    7.403423    2.709656
Si   16.501131    6.530454    4.444628
Si   18.542574    8.953754   11.319877
Si   16.173571    9.481874    9.356858
Si   15.618961    8.919528    6.425982
Si   12.450881    8.658652    6.621507
Si   11.485620    9.377802    9.411461
Si   13.738296    8.722926   11.152590
Si   18.480106   13.465256   11.134254
Si   16.144739   12.663127    9.247519
Si   15.474604   13.419488    6.280776
Si   12.451682   13.379292    6.230456
Si   13.788951   13.445356   11.146835
Si   11.537477   18.795799    4.640422
Si   13.952331   19.301434    2.644882
Si   14.388009   18.871813   13.089109
Si   17.529261   18.618500   13.226553
Si   18.613251   19.345211    2.557893
Si   16.397217   18.626060    4.410635
Si   11.727085    3.375468    4.546607
Si   13.937715    2.629056    2.454844
Si   14.645692    3.453074   12.961168
Si   17.696043    3.442527   12.989540
Si   18.678324    2.514438    2.404658
Si   18.522753    1.041315   11.385186
Si   16.069256    0.550605    9.425513
Si   15.553490    0.988980    6.483662
Si   12.460892    1.197920    6.572927
Si   11.355276    0.462055    9.330762
Si   13.604348    1.365071   11.160887
Si   18.452074   16.552982   11.115117
Si   16.161358   17.270741    9.154374
Si   15.422145   16.593378    6.232329
Si   12.394818   16.443737    6.308211
Si   11.507243   17.211441    9.241899
Si   13.864033   16.435579   11.036291
Si    8.546791    9.086878    8.799725
Si    5.939326    9.487844   10.656214
Si    5.453592    8.875153    0.288671
Si    2.262686    8.675963    0.172641
Si    1.420361    9.572215   10.752571
Si    3.530879    8.759340    8.700824
Si    8.360186   13.334718    8.934893
Si    5.991783   12.649993   10.985436
Si    5.376508   13.360586    0.487275
Si    2.360193   13.434810    0.258024
Si    1.364499   12.644223   10.811323
Si    3.705672   13.383471    9.012246
Si    1.538891   11.093096    1.998751
Si    3.955346   10.472246    3.956550
Si    4.446085   11.117373    6.855041
Si    7.607358   11.270396    6.793211
Si    8.652307   10.481600    4.044477
Si    6.396628   11.108218    2.152789
Si    1.665830    6.513341    2.234827
Si    4.040440    7.288805    4.121429
Si    4.504349    6.567665    7.048693
Si    8.717778    7.370390    4.222069
Si    6.472512    6.616020    2.350992
O    7.183093    1.163296    9.783776
O    6.346573    1.326865   12.267260
O    4.006002    0.909185    0.151763
O    1.841423    1.499589   12.061296
O    2.114323    0.997537    9.440502
O    4.572624    1.086286   10.382131
O    7.484824   16.746599   10.194500
O    6.167777   16.742620   12.436554
O    3.895680   17.090654    0.415944
O    1.753927   16.493685   12.327082
O    2.165980   16.583031    9.784445
O    4.829907   16.752769   10.118887
O    6.094697   18.911213   10.879309
O    1.847029   18.899872   11.199028
O    8.665121    2.562991    8.116254
O    8.181991   19.973225    7.521514
O    8.510951   17.331034    7.692816
O    3.759731    2.896101    8.608748
O    4.172184    0.397781    7.852208
O    3.588343   17.413416    7.780208
O   19.847208    0.664826   10.533760
O   19.829588   17.322279   10.710281
O    2.760033   18.818483    3.086254
O    3.759130   18.673420    5.489974
O    6.145953   18.316433    7.197244
O    8.099099   18.409163    5.354672
O    7.918301   18.978870    2.748868
O    5.401936   18.987427    3.438361
O    2.589045    3.323133    3.602034
O    3.684649    2.910030    5.953695
O    6.083885    2.814117    7.277006
O    8.095695    3.412281    5.665426
O    8.003594    3.151007    3.011844
O    5.257576    3.396958    3.847211
O    3.841621    1.087281    4.089577
O    8.339964    0.996542    4.599470
O    1.415355   17.331034    1.423817
O    1.664229    0.004378    0.833226
O    2.176792    2.654925    0.998640
O    6.264884   17.173632    1.683849
O    6.173182   19.658421    0.921420
O    5.851229    2.498518    1.174626
O   10.199807   19.070604    3.771463
O   10.269083    2.736511    4.341980
O   12.838907   10.695115    3.606050
O   13.846814   11.109015    1.240470
O   16.063650   11.031209   13.054582
O   18.107695   11.366110    1.407624
O   17.963737   11.017878    4.018112
O   15.435760   11.276962    3.263311
O   12.843912    6.881074    3.332367
O   13.922498    6.960869    0.991546
O   16.324537    7.272885   13.291996
O   18.681526    6.476328    1.420070
O   18.025606    6.962859    4.010752
O   15.526259    6.544384    3.106730
O   14.515750    8.895649    2.680213
O   18.526356    8.959923    2.347111
O   11.593739   12.452396    5.187519
O   11.670223    9.869108    5.857204
O   12.257668    7.237067    5.868178
O   16.436459   12.847192    5.105882
O   16.096285   10.283604    5.692192
O   15.936510    7.624501    5.523566
O    0.258884   10.942062    2.992171
O    0.500350    7.289601    3.094283
O   17.260965    8.784413   10.368880
O   16.418640    8.872169    7.867733
O   14.025210    9.040514    6.696988
O   11.838207    8.456279    8.108625
O   12.179783    8.634972   10.699173
O   14.665915    9.190553    9.880000
O   17.271177   13.510824   10.047153
O   16.189188   13.093941    7.704326
O   13.989572   12.765805    6.192180
O   11.847417   13.346856    7.704058
O   12.179983   13.431029   10.540719
O   14.670719   13.018324    9.868358
O   16.444468   11.085932    9.449067
O   12.020608   10.875201    9.213259
O   18.853115    7.399244   11.971094
O   18.356770    9.875874   12.627129
O   18.100889   12.597858   12.464257
O   14.180982    7.280447   11.709322
O   13.845813    9.785931   12.377669
O   13.923298   12.436676   12.380614
O    9.868443    9.367852    9.703211
O    9.686243   12.604624    9.452547
O   12.845513   18.736898    3.679924
O   13.678629   18.661083    1.160574
O   15.982361   19.065430   13.299089
O   18.111900   18.391651    1.340843
O   17.928499   18.899275    3.946513
O   15.440765   18.821867    3.105927
O   12.586830    3.161752    3.185823
O   13.776938    2.988631    0.871233
O   16.170769    2.823668   12.961302
O   18.185982    3.410887    1.179578
O   17.946520    3.133893    3.839449
O   15.274183    3.315372    3.015324
O   13.935512    1.010471    2.666028
O   18.186983    0.993159    2.184507
O   11.421550   17.335014    5.362836
O   11.602348    0.078004    5.764058
O   12.435263    2.655124    5.844223
O   16.260466   17.088066    4.932840
O   16.099489   19.572258    5.686169
O   15.777135    2.335745    5.678006
O    0.174792   19.229597    2.845895
O    0.222645    2.656516    2.765062
O   17.266972    1.079123   10.373163
O   16.351166    1.064995    7.918855
O   13.979560    0.667412    6.777687
O   11.757919    1.339601    8.031138
O   12.094089    1.089470   10.632125
O   14.661309    1.159316    9.946112
O   17.522253   16.658648    9.789263
O   16.260666   17.012451    7.563804
O   13.884255   17.155325    6.282784
O   11.847618   16.423840    7.857695
O   12.349369   16.498260   10.458948
O   14.867336   16.488909    9.769055
O   15.945320   18.826643    9.538065
O   11.841611   18.804157    9.117838
O   18.687534    2.482002   12.121117
O   18.366581   19.816021   12.545894
O   17.686434   17.239498   12.379007
O   13.766525    2.893713   11.698883
O   13.847615    0.325946   12.388643
O   14.103296   17.576389   12.139987
O    9.754118    0.582245    9.614882
O   10.005795   16.910170    9.778155
O    7.264582    9.293429    9.782572
O    6.019614    8.622635   12.102783
O    3.844624    9.032753    0.329891
O    1.912501    8.612885   11.964670
O    2.088094    9.122100    9.360606
O    4.652312    8.947784    9.871034
O    7.240155   13.174531   10.119422
O    6.252670   13.110058   12.521403
O    3.858640   12.774163    0.247452
O    1.754528   13.524555   12.123125
O    2.161175   13.098119    9.456964
O    4.597852   13.266067   10.373699
O    5.757726   11.037180   11.039235
O    1.750123   11.102050   11.196887
O    8.587635    7.538935    8.280865
O    8.503943   10.111279    7.529945
O    7.765532   12.697154    7.542926
O    3.505852    7.224133    8.191734
O    3.747918    9.781155    7.452859
O    4.166378   12.433493    7.783687
O   19.841801    9.368051   10.458815
O   19.796152   12.772770   10.456539
O    2.925214   11.102648    2.851918
O    3.840620   11.344620    5.348917
O    6.041238   10.840179    6.847680
O    8.100301   11.442920    5.252560
O    7.938122   10.862664    2.609283
O    5.492435   10.613132    3.414940
O    3.085190    6.560103    3.018937
O    3.751722    6.713923    5.602258
O    5.943531    7.286218    7.109451
O    8.265882    6.546572    5.512056
O    8.018810    6.967038    2.777776
O    5.580131    6.970819    3.686481
O    3.669632    8.887690    4.173890
O    8.350575    8.953555    4.504986
O    1.407547   12.497766    1.178239
O    1.427769    9.862541    0.917405
O    1.842625    7.221745    0.757612
O    6.095097   12.662131    1.770303
O    6.099102   10.281217    0.765106
O    5.927113    7.629476    1.169808
O   10.245858   10.695115    3.762095
O   10.346768    7.209408    3.928312
O    8.592641   14.915296    8.620793
O    3.826805   14.922062    8.452168
O    5.338666   14.927832    0.834965
O    2.410248   14.919474    0.918877
O    1.320451    4.956841    1.926215
O    6.335361    5.131952    1.761738
O    4.596050    4.990868    7.370687
O    7.587337    4.962015    7.785293
O   11.668020    4.976939    4.846787
O   16.510742    5.064494    5.097852
O   14.772231    5.053351   12.801107
O   17.848812    4.950473   12.466801
O   18.772026   15.009617   11.544712
O   14.018203   14.941562   11.714140
O   15.350667   15.000264    6.107600
O   12.431859   14.930817    5.694199
O   11.011899    7.954227   13.970380
Al    4.544193   18.865047    7.008142
Al    6.374404    3.514562    2.504762
Al   17.843807    6.458021   13.307118
Al   11.361684   12.457968    9.080767
Al   16.169567    3.488096    4.475410
Al    7.565113    6.622188    7.093392
H   10.132333    5.591818    9.244174
H   19.276581    6.763869   11.359625
H   11.721679   14.282309   10.719917
H   18.612249    3.563115    4.413044
H    2.949241   17.125875    7.094596
H    7.088389    6.097253   12.601031
H   10.916395    7.653952   14.902639
H   10.426056    8.733473   13.889681
Pt    7.206118    4.719844   -3.420829
Pt   10.180586    6.426581   -0.732050
Pt    9.156461    6.386186   -3.216470
Pt    6.821696    4.454192   -0.905761
Pt    7.951737    7.513863   -1.085094
Pt    9.221732    4.270525   -1.659492
