300
Pt6@Silicalite-1-2W_IS
Si    8.460496    1.024997    8.789286
Si    6.056455    0.534288   10.820424
Si    5.601955    1.208466    0.405906
Si    2.391628    1.363281    0.274887
Si    1.397535    0.538865   10.910089
Si    3.600956    1.206874    9.002610
Si    8.499939   16.463240    9.008767
Si    6.175585   17.196318   10.982491
Si    5.437775   16.486919    0.537461
Si    2.402240   16.440155    0.412598
Si    1.433575   17.325861   10.979012
Si    3.733302   16.387821    9.104723
Si    1.558913   18.803360    2.059510
Si    3.944334   19.294270    4.108715
Si    4.383616   18.731726    7.030090
Si    7.559506   18.548853    6.890505
Si    8.636290   19.370085    4.182054
Si    6.397429   18.689739    2.306426
Si    1.449793    3.414270    2.393148
Si    3.863245    2.630051    4.292865
Si    4.556807    3.413872    7.231638
Si    7.614166    3.453471    7.208218
Si    8.598047    2.562991    4.422814
Si    6.358587    3.467998    2.482680
Si   11.571314   10.975891    4.612853
Si   14.082072   10.585273    2.664555
Si   14.446672   11.148813   13.087103
Si   17.649593   11.316959   13.178909
Si   18.650692   10.498315    2.591350
Si   16.464891   11.237363    4.491602
Si   11.664415    6.572441    4.459484
Si   14.062852    7.385514    2.512524
Si   14.724979    6.679100   12.982046
Si   17.765921    6.553338   13.173155
Si   18.737389    7.396657    2.588005
Si   16.416437    6.470359    4.410903
Si   18.560392    8.880924   11.382376
Si   16.236040    9.522268    9.369170
Si   15.688638    8.793368    6.427454
Si   12.505941    8.647906    6.547499
Si   11.461594    9.503762    9.267461
Si   13.726683    8.862816   11.122879
Si   18.521351   13.480378   11.162761
Si   16.206005   12.687404    9.243103
Si   15.474803   13.376307    6.302055
Si   12.428255   13.384266    6.267527
Si   11.451583   12.582536    9.128945
Si   13.690442   13.407150   11.008856
Si   11.562104   18.817888    4.655277
Si   13.992575   19.373667    2.669373
Si   14.358377   18.799780   13.071444
Si   17.556490   18.614717   13.209958
Si   18.638880   19.338047    2.547588
Si   16.431854   18.657900    4.433654
Si   11.651602    3.390590    4.465372
Si   13.890662    2.685967    2.500747
Si   14.608851    3.485509   12.941228
Si   17.647791    3.500035   13.074522
Si   18.535967    2.531153    2.515335
Si   16.248053    3.445512    4.409297
Si   18.489716    1.120911   11.415699
Si   16.112904    0.623038    9.359802
Si   15.591731    1.098823    6.432271
Si   12.486920    1.245876    6.542012
Si   11.424152    0.546626    9.283385
Si   13.635582    1.328059   11.123682
Si   18.496723   16.535074   11.095712
Si   16.128120   17.285864    9.170835
Si   15.424747   16.511196    6.232196
Si   12.393618   16.450304    6.272077
Si   11.456989   17.330437    9.156515
Si   13.707061   16.449110   11.021169
Si    8.528770    9.140207    8.522696
Si    6.195407    9.447846   10.566147
Si    5.277599    8.748993    0.413267
Si    2.292919    8.669198    0.283318
Si    1.477023    9.447846   10.830594
Si    3.664426    8.924105    8.814044
Si    8.467704   13.358199    8.951889
Si    6.205619   12.542738   11.001763
Si    5.442980   13.368745    0.485268
Si    2.402440   13.400385    0.402427
Si    1.399738   12.568009   10.957064
Si    3.740910   13.311038    9.067518
Si    1.487835   11.017878    2.002364
Si    3.955346   10.477221    3.961636
Si    4.397232   11.100857    6.857985
Si    7.592342   11.320939    6.747307
Si    8.586434   10.482594    4.085161
Si    6.412846   11.042751    2.096179
Si    1.577734    6.527469    2.338679
Si    3.953744    7.271891    4.301965
Si    4.554404    6.586768    7.248233
Si    7.620573    6.576222    7.060470
Si    8.639293    7.404219    4.269311
Si    6.331557    6.553935    2.485223
O    7.254571    1.081909    9.871434
O    6.261480    1.241300   12.288003
O    3.993188    1.166081    0.406174
O    1.919909    1.495211   12.117371
O    2.088695    0.994950    9.522808
O    4.596250    0.985597   10.280954
O    7.503845   16.580046   10.285237
O    6.252069   16.812466   12.551247
O    3.914701   17.083689    0.418085
O    1.829610   16.423042   12.274352
O    2.255478   16.746403    9.698125
O    4.836915   16.585020   10.294205
O    6.170380   18.821270   10.869673
O    1.766941   18.895294   11.290836
O    8.589838    2.505085    8.110232
O    8.268085   19.819405    7.621217
O    7.834008   17.165674    7.694021
O    3.753524    2.727158    8.457253
O    3.850431    0.168147    7.781814
O    4.015212   17.400084    7.863851
O   19.844204    0.752182   10.615932
O   19.870832   17.252234   10.619946
O    2.822301   18.744062    3.080633
O    3.662224   18.652925    5.575492
O    5.983574   18.894499    6.789598
O    8.180188   18.386278    5.398435
O    7.921304   18.987825    2.774965
O    5.420155   18.832214    3.599626
O    2.510158    3.163742    3.591194
O    3.769742    3.070615    5.851985
O    6.097500    2.832026    7.196173
O    8.165772    3.483121    5.685099
O    7.823596    3.078972    3.088930
O    5.181694    3.307811    3.602168
O    3.925313    1.015048    4.175229
O    8.258875    0.989975    4.678831
O    1.420761   17.344765    1.342984
O    1.674640    0.065667    0.923427
O    1.928319    2.731934    1.000915
O    6.260078   17.172239    1.757456
O    6.089291   19.729261    1.094328
O    6.095297    2.549062    1.169942
O   10.208817   19.164927    3.836772
O   10.190598    2.732730    4.252181
O   12.760420   10.941465    3.518792
O   13.844612   11.254676    1.203801
O   16.058443   11.030613   13.046819
O   18.104492   11.373473    1.342047
O   17.950323   11.022256    3.940491
O   15.417340   11.275570    3.257288
O   12.684338    6.958681    3.255415
O   13.849017    7.044047    0.929985
O   16.257263    7.198862   13.282360
O   18.438059    6.475930    1.270314
O   17.911079    6.805856    3.859524
O   15.348264    6.626765    3.174448
O   14.342359    8.978230    2.673120
O   18.283089    8.934851    2.266545
O   11.509846   12.457968    5.285883
O   11.764126    9.864133    5.775032
O   12.186991    7.215975    5.855865
O   16.426249   12.688797    5.191534
O   16.179977   10.034866    5.526644
O   16.019602    7.386907    5.690987
O    0.183802   10.777896    2.932081
O    0.291921    7.294973    3.006357
O   17.271976    8.783816   10.380792
O   16.424046    8.869979    7.881918
O   14.090483    8.953356    6.609462
O   11.921499    8.534284    8.047868
O   12.178982    8.952361   10.623425
O   14.685536    9.357107    9.884417
O   17.345259   13.514804   10.041666
O   16.259066   13.179307    7.704727
O   13.949928   12.761230    6.279572
O   11.844415   13.425856    7.786899
O   12.170373   13.258306   10.438473
O   14.699552   13.011160    9.787925
O   16.595634   11.111204    9.366761
O   11.936915   11.033000    8.950150
O   18.685732    7.472870   12.203824
O   18.437458   10.106901   12.449938
O   18.018398   12.763218   12.537061
O   14.105098    7.361835   11.631433
O   13.846614    9.784338   12.456362
O   13.928304   12.448616   12.289475
O    9.847219    9.447249    9.448934
O    9.848221   12.601241    9.370108
O   12.846315   18.827438    3.674838
O   13.678829   18.819479    1.172083
O   15.964141   18.907831   13.214776
O   18.107296   18.396029    1.335490
O   17.950924   18.842960    3.927911
O   15.433158   18.820475    3.165080
O   12.446675    3.149813    3.077555
O   13.848415    3.068028    0.928379
O   16.129522    2.894310   12.964782
O   18.106895    3.478146    1.258537
O   17.674820    2.904060    3.843731
O   15.102594    3.483320    3.245244
O   14.095287    1.093848    2.753418
O   18.269474    0.975648    2.105681
O   11.431360   17.322876    5.286151
O   11.674027    0.013929    5.856535
O   12.426053    2.642786    5.696876
O   16.269276   17.160101    5.017688
O   16.185385   19.739212    5.610823
O   15.762519    2.484987    5.616979
O    0.195615   19.149008    2.858743
O    0.072079    2.736709    2.924186
O   17.260365    1.162102   10.365936
O   16.356173    1.235529    7.867733
O   14.022608    0.754769    6.693374
O   11.839008    1.490435    8.019361
O   12.098494    1.161306   10.622622
O   14.661309    1.154341    9.872773
O   17.441563   16.653473    9.869695
O   16.191591   16.839928    7.618006
O   13.899073   17.093439    6.271274
O   11.838608   16.503832    7.803761
O   12.189993   16.664021   10.453060
O   14.756413   16.673571    9.793412
O   16.104094   18.898479    9.366361
O   11.918896   18.904648    9.028306
O   18.609247    2.578911   12.135704
O   18.337149   19.882881   12.561016
O   17.846409   17.250841   12.393060
O   13.769931    2.831429   11.713605
O   13.854623    0.236400   12.298575
O   13.937113   17.430729   12.297505
O    9.826597    0.669999    9.612473
O    9.857030   17.253428    9.442376
O    7.167476    9.625345    9.198939
O    5.172684    8.530901   12.212657
O    3.748519    9.045290    0.907635
O    2.088295    8.541248   12.051927
O    2.159973    9.122498    9.397811
O    4.685148    9.597884    9.861130
O    7.436371   13.256913   10.194634
O    6.242459   13.270246   12.463990
O    3.916904   12.767596    0.411795
O    1.824004   13.437396   12.267796
O    2.252475   13.099314    9.688490
O    4.841920   13.004395   10.217252
O    6.344371   10.955394   11.282538
O    1.674840   11.005540   11.288159
O    8.595244    7.557441    7.954855
O    8.601851   10.112274    7.197244
O    7.843218   12.687006    7.603551
O    3.850231    7.315668    8.518146
O    3.752723    9.695190    7.367074
O    3.925513   12.355289    7.773382
O   19.925093    9.116528   10.542459
O   19.849810   12.766999   10.549284
O    2.818097   10.951614    2.920438
O    3.835014   11.343425    5.341289
O    6.016811   10.944251    6.852765
O    8.004995   11.542813    5.174403
O    7.946331   10.768146    2.603663
O    5.430167   10.768742    3.350301
O    2.838118    6.554133    3.359802
O    3.747317    6.870130    5.861486
O    6.098300    7.132598    7.104500
O    8.175383    6.470956    5.532934
O    7.849425    6.955496    2.919502
O    5.423159    6.713724    3.841055
O    3.834814    8.876347    4.185667
O    8.260276    8.956938    4.593581
O    1.419560   12.507119    1.337497
O    1.336468    9.872293    0.837374
O    1.910499    7.211995    0.907100
O    6.262481   12.599450    1.661901
O    6.181792   10.041433    0.840319
O    5.766536    7.448394    1.274062
O   10.187995   10.628852    3.839717
O   10.235646    7.209806    4.016372
O    8.832105   14.921464    8.622131
O    3.837817   14.862165    8.540629
O    5.346875   14.925046    0.918341
O    2.415254   14.922260    0.996097
O    1.241965    4.972959    2.020699
O    6.335161    5.003006    1.928490
O    4.589643    4.992460    7.530347
O    7.676635    5.038626    7.703523
O   11.587732    4.979526    4.766623
O   16.422045    4.951667    4.999354
O   14.677728    5.080812   12.716660
O   17.691639    5.045789   12.551782
O   18.852314   15.018572   11.541634
O   13.927503   14.924449   11.545381
O   15.353470   14.933802    5.937769
O   12.419646   14.919673    5.703701
O    9.011501    2.564384   12.297371
O    9.088185    8.591393   13.564607
Pt    7.129834    5.011563   -3.320055
Pt    9.260776    7.169808   -0.518859
Pt    9.030522    6.781778   -3.028172
Pt    6.483123    5.000619   -0.914193
Pt    6.888969    7.529782   -1.861709
Pt    9.009099    4.761632   -1.180782
H    8.082281    2.265700   12.191111
H    9.513653    2.150485   11.568533
H    8.974661    9.466153   13.135950
H    8.942626    8.736656   14.516809
